<?xml version="1.0" encoding="UTF-8"?>
<configuration>
  <input>
    <net-file value="output/net.net.xml"/>
    <route-files value="output/tlp.rou.xml"/>
  </input>
  <time>
    <begin value="0"/>
    <end value="10000"/>
  </time>
</configuration>
