<?xml version="1.0" encoding="UTF-8"?>

<!-- generated on 03/18/21 20:08:03 by Eclipse SUMO netconvert Version 1.8.0
<configuration xmlns:xsi="http://www.w3.org/2001/XMLSchema-instance" xsi:noNamespaceSchemaLocation="http://sumo.dlr.de/xsd/netconvertConfiguration.xsd">

    <input>
        <osm-files value="C:\Users\HP\Downloads\map%20(1).osm"/>
    </input>

    <output>
        <output-file value="feup.net.xml"/>
    </output>

    <projection>
        <proj.utm value="true"/>
    </projection>

    <processing>
        <geometry.remove value="true"/>
        <roundabouts.guess value="true"/>
    </processing>

    <tls_building>
        <tls.discard-simple value="true"/>
        <tls.join value="true"/>
        <tls.guess-signals value="true"/>
    </tls_building>

    <ramp_guessing>
        <ramps.guess value="true"/>
    </ramp_guessing>

    <junctions>
        <junctions.join value="true"/>
    </junctions>

    <report>
        <aggregate-warnings value="5"/>
    </report>

</configuration>
-->

<net version="1.6" junctionCornerDetail="5" limitTurnSpeed="5.50" xmlns:xsi="http://www.w3.org/2001/XMLSchema-instance" xsi:noNamespaceSchemaLocation="http://sumo.dlr.de/xsd/net_file.xsd">

    <location netOffset="-531916.14,-4557908.01" convBoundary="0.00,0.00,2270.73,1746.79" origBoundary="-8.619497,41.171812,-8.592427,41.187536" projParameter="+proj=utm +zone=29 +ellps=WGS84 +datum=WGS84 +units=m +no_defs"/>

    <type id="highway.bridleway" priority="1" numLanes="1" speed="2.78" allow="pedestrian" oneway="1" width="2.00"/>
    <type id="highway.bus_guideway" priority="1" numLanes="1" speed="27.78" allow="bus" oneway="1"/>
    <type id="highway.cycleway" priority="1" numLanes="1" speed="8.33" allow="bicycle" oneway="0" width="1.00"/>
    <type id="highway.footway" priority="1" numLanes="1" speed="2.78" allow="pedestrian" oneway="1" width="2.00"/>
    <type id="highway.ford" priority="1" numLanes="1" speed="2.78" allow="army" oneway="0"/>
    <type id="highway.living_street" priority="2" numLanes="1" speed="2.78" disallow="tram rail_urban rail rail_electric rail_fast ship" oneway="0"/>
    <type id="highway.motorway" priority="14" numLanes="2" speed="39.44" allow="private emergency authority army vip passenger hov taxi bus coach delivery truck trailer motorcycle evehicle custom1 custom2" oneway="1"/>
    <type id="highway.motorway_link" priority="9" numLanes="1" speed="22.22" allow="private emergency authority army vip passenger hov taxi bus coach delivery truck trailer motorcycle evehicle custom1 custom2" oneway="1"/>
    <type id="highway.path" priority="1" numLanes="1" speed="2.78" allow="pedestrian bicycle" oneway="0" width="2.00"/>
    <type id="highway.pedestrian" priority="1" numLanes="1" speed="2.78" allow="pedestrian" oneway="1" width="2.00"/>
    <type id="highway.primary" priority="12" numLanes="2" speed="27.78" disallow="tram rail_urban rail rail_electric rail_fast ship" oneway="0"/>
    <type id="highway.primary_link" priority="7" numLanes="1" speed="22.22" disallow="tram rail_urban rail rail_electric rail_fast ship" oneway="0"/>
    <type id="highway.raceway" priority="15" numLanes="2" speed="83.33" allow="vip" oneway="0"/>
    <type id="highway.residential" priority="3" numLanes="1" speed="13.89" disallow="tram rail_urban rail rail_electric rail_fast ship" oneway="0"/>
    <type id="highway.secondary" priority="11" numLanes="1" speed="27.78" disallow="tram rail_urban rail rail_electric rail_fast ship" oneway="0"/>
    <type id="highway.secondary_link" priority="6" numLanes="1" speed="22.22" disallow="tram rail_urban rail rail_electric rail_fast ship" oneway="0"/>
    <type id="highway.service" priority="1" numLanes="1" speed="5.56" allow="pedestrian delivery bicycle" oneway="0"/>
    <type id="highway.stairs" priority="1" numLanes="1" speed="1.39" allow="pedestrian" oneway="1" width="2.00"/>
    <type id="highway.step" priority="1" numLanes="1" speed="1.39" allow="pedestrian" oneway="1" width="2.00"/>
    <type id="highway.steps" priority="1" numLanes="1" speed="1.39" allow="pedestrian" oneway="1" width="2.00"/>
    <type id="highway.tertiary" priority="10" numLanes="1" speed="22.22" disallow="tram rail_urban rail rail_electric rail_fast ship" oneway="0"/>
    <type id="highway.tertiary_link" priority="5" numLanes="1" speed="22.22" disallow="tram rail_urban rail rail_electric rail_fast ship" oneway="0"/>
    <type id="highway.track" priority="1" numLanes="1" speed="5.56" allow="pedestrian motorcycle moped bicycle" oneway="0"/>
    <type id="highway.trunk" priority="13" numLanes="2" speed="27.78" disallow="pedestrian bicycle tram rail_urban rail rail_electric rail_fast ship" oneway="0"/>
    <type id="highway.trunk_link" priority="8" numLanes="1" speed="22.22" disallow="pedestrian bicycle tram rail_urban rail rail_electric rail_fast ship" oneway="0"/>
    <type id="highway.unclassified" priority="4" numLanes="1" speed="13.89" disallow="tram rail_urban rail rail_electric rail_fast ship" oneway="0"/>
    <type id="highway.unsurfaced" priority="1" numLanes="1" speed="8.33" disallow="tram rail_urban rail rail_electric rail_fast ship" oneway="0"/>
    <type id="railway.highspeed" priority="21" numLanes="1" speed="69.44" allow="rail_fast" oneway="1"/>
    <type id="railway.light_rail" priority="19" numLanes="1" speed="27.78" allow="rail_urban" oneway="1"/>
    <type id="railway.preserved" priority="16" numLanes="1" speed="27.78" allow="rail" oneway="1"/>
    <type id="railway.rail" priority="20" numLanes="1" speed="44.44" allow="rail" oneway="1"/>
    <type id="railway.subway" priority="18" numLanes="1" speed="27.78" allow="rail_urban" oneway="1"/>
    <type id="railway.tram" priority="17" numLanes="1" speed="13.89" allow="tram" oneway="1"/>

    <edge id=":112613589_0" function="internal">
        <lane id=":112613589_0_0" index="0" disallow="tram rail_urban rail rail_electric rail_fast ship" speed="8.10" length="8.96" shape="678.49,1310.57 678.79,1312.88 679.63,1314.86 681.01,1316.51 682.92,1317.84"/>
    </edge>
    <edge id=":112613589_1" function="internal">
        <lane id=":112613589_1_0" index="0" disallow="tram rail_urban rail rail_electric rail_fast ship" speed="3.65" length="4.67" shape="678.49,1310.57 677.70,1311.78 676.91,1312.19 676.10,1311.80 675.29,1310.61"/>
    </edge>
    <edge id=":112613589_2" function="internal">
        <lane id=":112613589_2_0" index="0" disallow="tram rail_urban rail rail_electric rail_fast ship" speed="5.70" length="9.28" shape="669.47,1314.22 672.05,1315.20 673.88,1314.92 674.96,1313.39 675.29,1310.61"/>
    </edge>
    <edge id=":112613589_3" function="internal">
        <lane id=":112613589_3_0" index="0" disallow="tram rail_urban rail rail_electric rail_fast ship" speed="27.78" length="13.59" shape="669.47,1314.22 681.42,1320.66"/>
        <lane id=":112613589_3_1" index="1" disallow="tram rail_urban rail rail_electric rail_fast ship" speed="27.78" length="13.59" shape="667.94,1317.03 679.91,1323.48"/>
    </edge>
    <edge id=":112613596_0" function="internal">
        <lane id=":112613596_0_0" index="0" disallow="tram rail_urban rail rail_electric rail_fast ship" speed="20.84" length="1.19" shape="1012.64,1410.94 1012.99,1410.92 1013.23,1410.89 1013.47,1410.84 1013.81,1410.76"/>
    </edge>
    <edge id=":112613596_1" function="internal">
        <lane id=":112613596_1_0" index="0" disallow="tram rail_urban rail rail_electric rail_fast ship" speed="27.78" length="1.97" shape="1012.88,1414.13 1013.38,1414.08 1013.73,1414.02 1014.06,1413.94 1014.56,1413.81"/>
        <lane id=":112613596_1_1" index="1" disallow="tram rail_urban rail rail_electric rail_fast ship" speed="27.78" length="1.97" shape="1013.12,1417.33 1013.78,1417.26 1014.22,1417.19 1014.67,1417.08 1015.31,1416.92"/>
    </edge>
    <edge id=":112651995_0" function="internal">
        <lane id=":112651995_0_0" index="0" disallow="tram rail_urban rail rail_electric rail_fast ship" speed="8.57" length="3.87" shape="1515.36,1297.47 1514.27,1297.15 1513.48,1297.04 1512.69,1297.12 1511.58,1297.40"/>
    </edge>
    <edge id=":112651995_1" function="internal">
        <lane id=":112651995_1_0" index="0" disallow="tram rail_urban rail rail_electric rail_fast ship" speed="27.78" length="3.81" shape="1514.45,1293.23 1510.74,1294.31"/>
        <lane id=":112651995_1_1" index="1" disallow="tram rail_urban rail rail_electric rail_fast ship" speed="27.78" length="3.81" shape="1513.51,1290.18 1509.90,1291.22"/>
    </edge>
    <edge id=":112652014_0" function="internal">
        <lane id=":112652014_0_0" index="0" disallow="tram rail_urban rail rail_electric rail_fast ship" speed="27.78" length="9.51" shape="568.05,1287.95 565.81,1286.83 564.21,1286.18 562.54,1285.76 560.07,1285.34"/>
        <lane id=":112652014_0_1" index="1" disallow="tram rail_urban rail rail_electric rail_fast ship" speed="27.78" length="9.51" shape="569.51,1285.10 567.00,1283.85 565.21,1283.12 563.34,1282.65 560.58,1282.18"/>
        <lane id=":112652014_0_2" index="2" disallow="tram rail_urban rail rail_electric rail_fast ship" speed="27.78" length="9.51" shape="569.51,1285.10 566.96,1283.27 565.49,1281.49 563.92,1279.99 561.09,1279.02"/>
    </edge>
    <edge id=":112652932_0" function="internal">
        <lane id=":112652932_0_0" index="0" allow="private emergency authority army vip passenger hov taxi bus coach delivery truck trailer motorcycle evehicle custom1 custom2" speed="19.45" length="19.55" shape="2161.99,1020.40 2165.63,1019.44 2169.45,1017.72 2173.94,1015.27 2179.60,1012.11"/>
    </edge>
    <edge id=":112652932_1" function="internal">
        <lane id=":112652932_1_0" index="0" disallow="tram rail_urban rail rail_electric rail_fast ship" speed="27.78" length="19.42" shape="2163.67,1023.61 2181.13,1014.92"/>
        <lane id=":112652932_1_1" index="1" disallow="tram rail_urban rail rail_electric rail_fast ship" speed="27.78" length="19.42" shape="2165.36,1026.33 2182.67,1017.72"/>
    </edge>
    <edge id=":1221776530_0" function="internal">
        <lane id=":1221776530_0_0" index="0" disallow="tram rail_urban rail rail_electric rail_fast ship" speed="7.34" length="11.04" shape="1718.45,1332.39 1716.92,1329.38 1715.04,1327.47 1712.81,1326.63 1710.22,1326.89"/>
    </edge>
    <edge id=":1221776530_1" function="internal">
        <lane id=":1221776530_1_0" index="0" disallow="tram rail_urban rail rail_electric rail_fast ship" speed="13.89" length="16.97" shape="1718.45,1332.39 1712.96,1316.33"/>
    </edge>
    <edge id=":1221776530_2" function="internal">
        <lane id=":1221776530_2_0" index="0" disallow="tram rail_urban rail rail_electric rail_fast ship" speed="7.45" length="6.80" shape="1718.45,1332.39 1717.36,1327.70 1717.88,1325.79"/>
    </edge>
    <edge id=":1221776530_3" function="internal">
        <lane id=":1221776530_3_0" index="0" disallow="tram rail_urban rail rail_electric rail_fast ship" speed="3.65" length="2.34" shape="1718.45,1332.39 1718.77,1330.99 1719.37,1330.33"/>
    </edge>
    <edge id=":1221776530_20" function="internal">
        <lane id=":1221776530_20_0" index="0" disallow="tram rail_urban rail rail_electric rail_fast ship" speed="7.45" length="9.49" shape="1717.88,1325.79 1718.24,1324.49 1721.08,1322.75 1725.88,1322.49"/>
    </edge>
    <edge id=":1221776530_21" function="internal">
        <lane id=":1221776530_21_0" index="0" disallow="tram rail_urban rail rail_electric rail_fast ship" speed="3.65" length="2.34" shape="1719.37,1330.33 1720.26,1330.42 1721.44,1331.25"/>
    </edge>
    <edge id=":1221776530_4" function="internal">
        <lane id=":1221776530_4_0" index="0" disallow="tram rail_urban rail rail_electric rail_fast ship" speed="5.76" length="9.17" shape="1725.62,1325.68 1722.92,1325.82 1721.32,1326.80 1720.82,1328.61 1721.44,1331.25"/>
    </edge>
    <edge id=":1221776530_5" function="internal">
        <lane id=":1221776530_5_0" index="0" disallow="tram rail_urban rail rail_electric rail_fast ship" speed="13.89" length="15.52" shape="1725.62,1325.68 1721.79,1325.50 1717.86,1325.61 1713.96,1326.06 1710.22,1326.89"/>
    </edge>
    <edge id=":1221776530_6" function="internal">
        <lane id=":1221776530_6_0" index="0" disallow="tram rail_urban rail rail_electric rail_fast ship" speed="10.14" length="16.82" shape="1725.62,1325.68 1721.03,1324.78 1717.39,1322.92 1714.70,1320.11 1712.96,1316.33"/>
    </edge>
    <edge id=":1221776530_7" function="internal">
        <lane id=":1221776530_7_0" index="0" disallow="tram rail_urban rail rail_electric rail_fast ship" speed="3.65" length="4.67" shape="1725.62,1325.68 1724.49,1324.78 1724.16,1323.95 1724.62,1323.19 1725.88,1322.49"/>
    </edge>
    <edge id=":1221776530_8" function="internal">
        <lane id=":1221776530_8_0" index="0" disallow="tram rail_urban rail rail_electric rail_fast ship" speed="5.64" length="9.81" shape="1722.99,1316.49 1721.33,1318.87 1721.26,1320.67 1722.78,1321.87 1725.88,1322.49"/>
    </edge>
    <edge id=":1221776530_9" function="internal">
        <lane id=":1221776530_9_0" index="0" disallow="tram rail_urban rail rail_electric rail_fast ship" speed="10.31" length="15.66" shape="1722.99,1316.49 1720.99,1319.49 1720.07,1322.95 1720.21,1326.87 1721.44,1331.25"/>
    </edge>
    <edge id=":1221776530_10" function="internal">
        <lane id=":1221776530_10_0" index="0" disallow="tram rail_urban rail rail_electric rail_fast ship" speed="13.89" length="16.64" shape="1722.99,1316.49 1720.25,1319.47 1717.14,1322.55 1713.77,1325.20 1710.22,1326.89"/>
    </edge>
    <edge id=":1221776530_11" function="internal">
        <lane id=":1221776530_11_0" index="0" disallow="tram rail_urban rail rail_electric rail_fast ship" speed="6.69" length="13.58" shape="1722.99,1316.49 1719.54,1319.56 1716.71,1320.56 1714.52,1319.49 1712.96,1316.33"/>
    </edge>
    <edge id=":1221776530_12" function="internal">
        <lane id=":1221776530_12_0" index="0" disallow="tram rail_urban rail rail_electric rail_fast ship" speed="8.96" length="12.95" shape="1716.03,1315.42 1717.36,1318.27 1719.44,1320.39 1722.28,1321.80 1725.88,1322.49"/>
    </edge>
    <edge id=":1221776530_13" function="internal">
        <lane id=":1221776530_13_0" index="0" disallow="tram rail_urban rail rail_electric rail_fast ship" speed="13.89" length="16.73" shape="1716.03,1315.42 1721.44,1331.25"/>
    </edge>
    <edge id=":1221776530_14" function="internal">
        <lane id=":1221776530_14_0" index="0" disallow="tram rail_urban rail rail_electric rail_fast ship" speed="8.11" length="5.81" shape="1716.03,1315.42 1716.67,1319.52 1716.29,1321.14"/>
    </edge>
    <edge id=":1221776530_15" function="internal">
        <lane id=":1221776530_15_0" index="0" disallow="tram rail_urban rail rail_electric rail_fast ship" speed="3.65" length="2.34" shape="1716.03,1315.42 1715.60,1316.80 1714.95,1317.41"/>
    </edge>
    <edge id=":1221776530_22" function="internal">
        <lane id=":1221776530_22_0" index="0" disallow="tram rail_urban rail rail_electric rail_fast ship" speed="8.11" length="8.87" shape="1716.29,1321.14 1715.91,1322.79 1713.76,1325.25 1710.22,1326.89"/>
    </edge>
    <edge id=":1221776530_23" function="internal">
        <lane id=":1221776530_23_0" index="0" disallow="tram rail_urban rail rail_electric rail_fast ship" speed="3.65" length="2.34" shape="1714.95,1317.41 1714.07,1317.25 1712.96,1316.33"/>
    </edge>
    <edge id=":1221776530_16" function="internal">
        <lane id=":1221776530_16_0" index="0" disallow="tram rail_urban rail rail_electric rail_fast ship" speed="6.64" length="9.49" shape="1709.33,1323.82 1711.58,1322.76 1712.93,1321.16 1713.39,1319.02 1712.96,1316.33"/>
    </edge>
    <edge id=":1221776530_17" function="internal">
        <lane id=":1221776530_17_0" index="0" disallow="tram rail_urban rail rail_electric rail_fast ship" speed="13.89" length="16.68" shape="1709.33,1323.82 1713.24,1322.96 1717.54,1322.48 1721.87,1322.33 1725.88,1322.49"/>
    </edge>
    <edge id=":1221776530_18" function="internal">
        <lane id=":1221776530_18_0" index="0" disallow="tram rail_urban rail rail_electric rail_fast ship" speed="8.69" length="15.89" shape="1709.33,1323.82 1713.22,1323.37 1716.53,1324.46 1719.27,1327.09 1721.44,1331.25"/>
    </edge>
    <edge id=":1221776530_19" function="internal">
        <lane id=":1221776530_19_0" index="0" disallow="tram rail_urban rail rail_electric rail_fast ship" speed="3.65" length="4.67" shape="1709.33,1323.82 1710.71,1324.25 1711.31,1324.91 1711.15,1325.79 1710.22,1326.89"/>
    </edge>
    <edge id=":1223751746_0" function="internal">
        <lane id=":1223751746_0_0" index="0" allow="pedestrian delivery bicycle" speed="3.65" length="4.67" shape="1384.07,498.49 1384.93,497.33 1385.75,496.97 1386.53,497.40 1387.27,498.64"/>
    </edge>
    <edge id=":1223751757_0" function="internal">
        <lane id=":1223751757_0_0" index="0" allow="pedestrian delivery bicycle" speed="7.22" length="7.08" shape="1386.02,524.69 1386.04,527.08 1386.36,528.96 1386.97,530.35 1387.88,531.23"/>
    </edge>
    <edge id=":1223751757_1" function="internal">
        <lane id=":1223751757_1_0" index="0" allow="pedestrian delivery bicycle" speed="3.65" length="4.67" shape="1386.02,524.69 1385.17,525.85 1384.35,526.21 1383.57,525.78 1382.83,524.54"/>
    </edge>
    <edge id=":1223751757_2" function="internal">
        <lane id=":1223751757_2_0" index="0" allow="pedestrian delivery bicycle" speed="4.75" length="5.51" shape="1379.14,526.83 1380.69,527.26 1381.82,527.02 1382.53,526.11 1382.83,524.54"/>
    </edge>
    <edge id=":1223751757_3" function="internal">
        <lane id=":1223751757_3_0" index="0" disallow="tram rail_urban rail rail_electric rail_fast ship" speed="22.22" length="9.79" shape="1379.14,526.83 1381.81,527.99 1383.62,528.82 1385.38,529.76 1387.88,531.23"/>
    </edge>
    <edge id=":128560419_0" function="internal">
        <lane id=":128560419_0_0" index="0" disallow="tram rail_urban rail rail_electric rail_fast ship" speed="5.83" length="9.13" shape="450.20,648.00 449.68,645.38 448.49,643.91 446.62,643.57 444.08,644.37"/>
    </edge>
    <edge id=":128560419_1" function="internal">
        <lane id=":128560419_1_0" index="0" disallow="tram rail_urban rail rail_electric rail_fast ship" speed="27.78" length="16.24" shape="450.20,648.00 449.59,631.78"/>
    </edge>
    <edge id=":128560419_2" function="internal">
        <lane id=":128560419_2_0" index="0" disallow="tram rail_urban rail rail_electric rail_fast ship" speed="3.65" length="2.34" shape="450.20,648.00 450.93,646.76 451.71,646.31"/>
    </edge>
    <edge id=":128560419_12" function="internal">
        <lane id=":128560419_12_0" index="0" disallow="tram rail_urban rail rail_electric rail_fast ship" speed="3.65" length="2.34" shape="451.71,646.31 452.53,646.67 453.39,647.82"/>
    </edge>
    <edge id=":128560419_3" function="internal">
        <lane id=":128560419_3_0" index="0" disallow="tram rail_urban rail rail_electric rail_fast ship" speed="9.74" length="14.45" shape="458.74,635.24 456.20,637.19 454.46,639.94 453.53,643.48 453.39,647.82"/>
    </edge>
    <edge id=":128560419_4" function="internal">
        <lane id=":128560419_4_0" index="0" disallow="tram rail_urban rail rail_electric rail_fast ship" speed="18.06" length="17.26" shape="458.74,635.24 444.08,644.37"/>
    </edge>
    <edge id=":128560419_5" function="internal">
        <lane id=":128560419_5_0" index="0" disallow="tram rail_urban rail rail_electric rail_fast ship" speed="6.65" length="12.87" shape="458.74,635.24 454.78,636.81 451.94,636.76 450.21,635.08 449.59,631.78"/>
    </edge>
    <edge id=":128560419_6" function="internal">
        <lane id=":128560419_6_0" index="0" disallow="tram rail_urban rail rail_electric rail_fast ship" speed="27.78" length="16.11" shape="452.79,631.72 453.39,647.82"/>
    </edge>
    <edge id=":128560419_7" function="internal">
        <lane id=":128560419_7_0" index="0" disallow="tram rail_urban rail rail_electric rail_fast ship" speed="10.30" length="6.06" shape="452.79,631.72 452.29,635.68 451.41,637.56"/>
    </edge>
    <edge id=":128560419_8" function="internal">
        <lane id=":128560419_8_0" index="0" disallow="tram rail_urban rail rail_electric rail_fast ship" speed="3.65" length="2.34" shape="452.79,631.72 452.01,632.94 451.21,633.35"/>
    </edge>
    <edge id=":128560419_13" function="internal">
        <lane id=":128560419_13_0" index="0" disallow="tram rail_urban rail rail_electric rail_fast ship" speed="10.30" length="10.22" shape="451.41,637.56 450.68,639.10 447.94,642.00 444.08,644.37"/>
    </edge>
    <edge id=":128560419_14" function="internal">
        <lane id=":128560419_14_0" index="0" disallow="tram rail_urban rail rail_electric rail_fast ship" speed="3.65" length="2.34" shape="451.21,633.35 450.41,632.96 449.59,631.78"/>
    </edge>
    <edge id=":128560419_9" function="internal">
        <lane id=":128560419_9_0" index="0" disallow="tram rail_urban rail rail_electric rail_fast ship" speed="9.12" length="12.61" shape="442.71,641.47 445.76,639.62 447.92,637.39 449.20,634.77 449.59,631.78"/>
    </edge>
    <edge id=":128560419_10" function="internal">
        <lane id=":128560419_10_0" index="0" disallow="tram rail_urban rail rail_electric rail_fast ship" speed="7.49" length="15.94" shape="442.71,641.47 447.15,640.08 450.41,640.67 452.49,643.25 453.39,647.82"/>
    </edge>
    <edge id=":128560419_11" function="internal">
        <lane id=":128560419_11_0" index="0" disallow="tram rail_urban rail rail_electric rail_fast ship" speed="3.65" length="2.55" shape="442.71,641.47 444.14,641.68 444.84,642.23 444.83,642.45"/>
    </edge>
    <edge id=":128560419_15" function="internal">
        <lane id=":128560419_15_0" index="0" disallow="tram rail_urban rail rail_electric rail_fast ship" speed="3.65" length="2.12" shape="444.83,642.45 444.82,643.13 444.08,644.37"/>
    </edge>
    <edge id=":128560421_0" function="internal">
        <lane id=":128560421_0_0" index="0" disallow="tram rail_urban rail rail_electric rail_fast ship" speed="6.39" length="9.04" shape="455.21,495.12 454.94,497.60 455.55,499.53 457.03,500.91 459.38,501.74"/>
    </edge>
    <edge id=":128560421_1" function="internal">
        <lane id=":128560421_1_0" index="0" disallow="tram rail_urban rail rail_electric rail_fast ship" speed="27.78" length="11.36" shape="455.21,495.12 454.44,498.21 453.90,500.65 453.45,503.11 452.97,506.25"/>
    </edge>
    <edge id=":128560421_2" function="internal">
        <lane id=":128560421_2_0" index="0" disallow="tram rail_urban rail rail_electric rail_fast ship" speed="3.65" length="2.34" shape="455.21,495.12 454.14,496.09 453.26,496.28"/>
    </edge>
    <edge id=":128560421_6" function="internal">
        <lane id=":128560421_6_0" index="0" disallow="tram rail_urban rail rail_electric rail_fast ship" speed="3.65" length="2.34" shape="453.26,496.28 452.59,495.69 452.11,494.33"/>
    </edge>
    <edge id=":128560421_3" function="internal">
        <lane id=":128560421_3_0" index="0" disallow="tram rail_urban rail rail_electric rail_fast ship" speed="27.78" length="11.70" shape="449.80,505.79 450.29,502.59 450.76,500.02 451.33,497.47 452.11,494.33"/>
    </edge>
    <edge id=":128560421_4" function="internal">
        <lane id=":128560421_4_0" index="0" disallow="tram rail_urban rail rail_electric rail_fast ship" speed="7.23" length="4.15" shape="449.80,505.79 450.72,503.37 451.95,502.41"/>
    </edge>
    <edge id=":128560421_5" function="internal">
        <lane id=":128560421_5_0" index="0" disallow="tram rail_urban rail rail_electric rail_fast ship" speed="3.65" length="2.34" shape="449.80,505.79 450.77,504.72 451.62,504.44"/>
    </edge>
    <edge id=":128560421_7" function="internal">
        <lane id=":128560421_7_0" index="0" disallow="tram rail_urban rail rail_electric rail_fast ship" speed="7.23" length="7.68" shape="451.95,502.41 452.62,501.89 455.51,501.35 459.38,501.74"/>
    </edge>
    <edge id=":128560421_8" function="internal">
        <lane id=":128560421_8_0" index="0" disallow="tram rail_urban rail rail_electric rail_fast ship" speed="3.65" length="2.34" shape="451.62,504.44 452.35,504.95 452.97,506.25"/>
    </edge>
    <edge id=":128560423_0" function="internal">
        <lane id=":128560423_0_0" index="0" disallow="tram rail_urban rail rail_electric rail_fast ship" speed="27.78" length="14.59" shape="473.44,422.85 470.08,437.05"/>
    </edge>
    <edge id=":128560423_1" function="internal">
        <lane id=":128560423_1_0" index="0" disallow="tram rail_urban rail rail_electric rail_fast ship" speed="8.17" length="6.03" shape="473.44,422.85 472.09,426.43 470.57,428.03"/>
    </edge>
    <edge id=":128560423_2" function="internal">
        <lane id=":128560423_2_0" index="0" disallow="tram rail_urban rail rail_electric rail_fast ship" speed="3.65" length="2.34" shape="473.44,422.85 472.40,423.86 471.54,424.08"/>
    </edge>
    <edge id=":128560423_9" function="internal">
        <lane id=":128560423_9_0" index="0" disallow="tram rail_urban rail rail_electric rail_fast ship" speed="8.17" length="8.33" shape="470.57,428.03 469.86,428.78 466.74,429.87 462.75,429.73"/>
    </edge>
    <edge id=":128560423_10" function="internal">
        <lane id=":128560423_10_0" index="0" disallow="tram rail_urban rail rail_electric rail_fast ship" speed="3.65" length="2.34" shape="471.54,424.08 470.84,423.52 470.31,422.18"/>
    </edge>
    <edge id=":128560423_3" function="internal">
        <lane id=":128560423_3_0" index="0" disallow="tram rail_urban rail rail_electric rail_fast ship" speed="6.71" length="9.35" shape="463.30,426.57 465.93,426.68 467.97,425.98 469.43,424.48 470.31,422.18"/>
    </edge>
    <edge id=":128560423_4" function="internal">
        <lane id=":128560423_4_0" index="0" disallow="tram rail_urban rail rail_electric rail_fast ship" speed="7.86" length="14.50" shape="463.30,426.57 467.12,427.82 469.52,429.98 470.51,433.06 470.08,437.05"/>
    </edge>
    <edge id=":128560423_5" function="internal">
        <lane id=":128560423_5_0" index="0" disallow="tram rail_urban rail rail_electric rail_fast ship" speed="3.65" length="4.67" shape="463.30,426.57 464.34,427.57 464.60,428.42 464.07,429.14 462.75,429.73"/>
    </edge>
    <edge id=":128560423_6" function="internal">
        <lane id=":128560423_6_0" index="0" disallow="tram rail_urban rail rail_electric rail_fast ship" speed="6.34" length="9.04" shape="466.98,436.26 467.25,433.77 466.63,431.85 465.13,430.50 462.75,429.73"/>
    </edge>
    <edge id=":128560423_7" function="internal">
        <lane id=":128560423_7_0" index="0" disallow="tram rail_urban rail rail_electric rail_fast ship" speed="27.78" length="14.47" shape="466.98,436.26 470.31,422.18"/>
    </edge>
    <edge id=":128560423_8" function="internal">
        <lane id=":128560423_8_0" index="0" disallow="tram rail_urban rail rail_electric rail_fast ship" speed="3.65" length="2.34" shape="466.98,436.26 468.05,435.29 468.92,435.10"/>
    </edge>
    <edge id=":128560423_11" function="internal">
        <lane id=":128560423_11_0" index="0" disallow="tram rail_urban rail rail_electric rail_fast ship" speed="3.65" length="2.34" shape="468.92,435.10 469.60,435.69 470.08,437.05"/>
    </edge>
    <edge id=":128560426_0" function="internal">
        <lane id=":128560426_0_0" index="0" disallow="tram rail_urban rail rail_electric rail_fast ship" speed="27.78" length="0.10" shape="488.79,355.20 488.86,355.23"/>
    </edge>
    <edge id=":128560426_1" function="internal">
        <lane id=":128560426_1_0" index="0" disallow="tram rail_urban rail rail_electric rail_fast ship" speed="27.78" length="0.14" shape="485.75,354.47 485.82,354.35"/>
    </edge>
    <edge id=":128571476_0" function="internal">
        <lane id=":128571476_0_0" index="0" allow="private emergency authority army vip passenger hov taxi bus coach delivery truck trailer motorcycle evehicle custom1 custom2" speed="13.89" length="5.59" shape="573.52,331.49 567.87,332.02"/>
        <lane id=":128571476_0_1" index="1" allow="private emergency authority army vip passenger hov taxi bus coach delivery truck trailer motorcycle evehicle custom1 custom2" speed="13.89" length="5.59" shape="573.05,328.33 567.57,328.83"/>
    </edge>
    <edge id=":128571476_2" function="internal">
        <lane id=":128571476_2_0" index="0" allow="private emergency authority army vip passenger hov taxi bus coach delivery truck trailer motorcycle evehicle custom1 custom2" speed="11.38" length="4.93" shape="572.58,325.16 571.14,325.40 570.12,325.51 569.13,325.41 567.74,325.00"/>
    </edge>
    <edge id=":128571479_0" function="internal">
        <lane id=":128571479_0_0" index="0" allow="private emergency authority army vip passenger hov taxi bus coach delivery truck trailer motorcycle evehicle custom1 custom2" speed="13.89" length="7.56" shape="728.50,293.08 726.63,294.34 725.52,295.49 724.38,296.57 722.41,297.60"/>
        <lane id=":128571479_0_1" index="1" allow="private emergency authority army vip passenger hov taxi bus coach delivery truck trailer motorcycle evehicle custom1 custom2" speed="13.89" length="7.56" shape="728.50,293.08 726.47,293.86 724.94,293.99 723.38,294.06 721.25,294.62"/>
    </edge>
    <edge id=":128573633_0" function="internal">
        <lane id=":128573633_0_0" index="0" allow="private emergency authority army vip passenger hov taxi bus coach delivery truck trailer motorcycle evehicle custom1 custom2" speed="22.22" length="5.21" shape="450.34,314.53 448.76,314.31 447.68,314.18 446.60,314.01 445.05,313.65"/>
        <lane id=":128573633_0_1" index="1" allow="private emergency authority army vip passenger hov taxi bus coach delivery truck trailer motorcycle evehicle custom1 custom2" speed="22.22" length="5.21" shape="450.82,311.36 449.33,311.16 448.31,311.05 447.30,310.88 445.84,310.55"/>
    </edge>
    <edge id=":128573633_2" function="internal">