<?xml version="1.0" encoding="UTF-8"?>

<!-- generated on 05/12/21 03:45:02 by Eclipse SUMO netconvert Version 1.8.0
<configuration xmlns:xsi="http://www.w3.org/2001/XMLSchema-instance" xsi:noNamespaceSchemaLocation="http://sumo.dlr.de/xsd/netconvertConfiguration.xsd">

    <input>
        <node-files value="true.nod.xml"/>
        <edge-files value="true.edg.xml"/>
        <connection-files value="true.con.xml"/>
        <tllogic-files value="true.tll.xml"/>
        <type-files value="true.typ.xml"/>
    </input>

    <processing>
        <plain.extend-edge-shape value="true"/>
    </processing>

    <report>
        <aggregate-warnings value="5"/>
    </report>

</configuration>
-->

<net version="1.6" junctionCornerDetail="5" limitTurnSpeed="5.50" xmlns:xsi="http://www.w3.org/2001/XMLSchema-instance" xsi:noNamespaceSchemaLocation="http://sumo.dlr.de/xsd/net_file.xsd">

    <location netOffset="-531916.14,-4557908.01" convBoundary="0.00,0.00,2270.73,1746.79" origBoundary="-8.619497,41.171812,-8.592427,41.187536" projParameter="+proj=utm +zone=29 +ellps=WGS84 +datum=WGS84 +units=m +no_defs"/>

    <type id="highway.bridleway" priority="1" numLanes="1" speed="2.78" allow="pedestrian" oneway="1" width="2.00"/>
    <type id="highway.bus_guideway" priority="1" numLanes="1" speed="27.78" allow="bus" oneway="1"/>
    <type id="highway.cycleway" priority="1" numLanes="1" speed="8.33" allow="bicycle" oneway="0" width="1.00"/>
    <type id="highway.footway" priority="1" numLanes="1" speed="2.78" allow="pedestrian" oneway="1" width="2.00"/>
    <type id="highway.ford" priority="1" numLanes="1" speed="2.78" allow="army" oneway="0"/>
    <type id="highway.living_street" priority="2" numLanes="1" speed="2.78" disallow="tram rail_urban rail rail_electric rail_fast ship" oneway="0"/>
    <type id="highway.motorway" priority="14" numLanes="2" speed="39.44" allow="private emergency authority army vip passenger hov taxi bus coach delivery truck trailer motorcycle evehicle custom1 custom2" oneway="1"/>
    <type id="highway.motorway_link" priority="9" numLanes="1" speed="22.22" allow="private emergency authority army vip passenger hov taxi bus coach delivery truck trailer motorcycle evehicle custom1 custom2" oneway="1"/>
    <type id="highway.path" priority="1" numLanes="1" speed="2.78" allow="pedestrian bicycle" oneway="0" width="2.00"/>
    <type id="highway.pedestrian" priority="1" numLanes="1" speed="2.78" allow="pedestrian" oneway="1" width="2.00"/>
    <type id="highway.primary" priority="12" numLanes="2" speed="27.78" disallow="tram rail_urban rail rail_electric rail_fast ship" oneway="0"/>
    <type id="highway.primary_link" priority="7" numLanes="1" speed="22.22" disallow="tram rail_urban rail rail_electric rail_fast ship" oneway="0"/>
    <type id="highway.raceway" priority="15" numLanes="2" speed="83.33" allow="vip" oneway="0"/>
    <type id="highway.residential" priority="3" numLanes="1" speed="13.89" disallow="tram rail_urban rail rail_electric rail_fast ship" oneway="0"/>
    <type id="highway.secondary" priority="11" numLanes="1" speed="27.78" disallow="tram rail_urban rail rail_electric rail_fast ship" oneway="0"/>
    <type id="highway.secondary_link" priority="6" numLanes="1" speed="22.22" disallow="tram rail_urban rail rail_electric rail_fast ship" oneway="0"/>
    <type id="highway.service" priority="1" numLanes="1" speed="5.56" allow="pedestrian delivery bicycle" oneway="0"/>
    <type id="highway.stairs" priority="1" numLanes="1" speed="1.39" allow="pedestrian" oneway="1" width="2.00"/>
    <type id="highway.step" priority="1" numLanes="1" speed="1.39" allow="pedestrian" oneway="1" width="2.00"/>
    <type id="highway.steps" priority="1" numLanes="1" speed="1.39" allow="pedestrian" oneway="1" width="2.00"/>
    <type id="highway.tertiary" priority="10" numLanes="1" speed="22.22" disallow="tram rail_urban rail rail_electric rail_fast ship" oneway="0"/>
    <type id="highway.tertiary_link" priority="5" numLanes="1" speed="22.22" disallow="tram rail_urban rail rail_electric rail_fast ship" oneway="0"/>
    <type id="highway.track" priority="1" numLanes="1" speed="5.56" allow="pedestrian motorcycle moped bicycle" oneway="0"/>
    <type id="highway.trunk" priority="13" numLanes="2" speed="27.78" disallow="pedestrian bicycle tram rail_urban rail rail_electric rail_fast ship" oneway="0"/>
    <type id="highway.trunk_link" priority="8" numLanes="1" speed="22.22" disallow="pedestrian bicycle tram rail_urban rail rail_electric rail_fast ship" oneway="0"/>
    <type id="highway.unclassified" priority="4" numLanes="1" speed="13.89" disallow="tram rail_urban rail rail_electric rail_fast ship" oneway="0"/>
    <type id="highway.unsurfaced" priority="1" numLanes="1" speed="8.33" disallow="tram rail_urban rail rail_electric rail_fast ship" oneway="0"/>
    <type id="railway.highspeed" priority="21" numLanes="1" speed="69.44" allow="rail_fast" oneway="1"/>
    <type id="railway.light_rail" priority="19" numLanes="1" speed="27.78" allow="rail_urban" oneway="1"/>
    <type id="railway.preserved" priority="16" numLanes="1" speed="27.78" allow="rail" oneway="1"/>
    <type id="railway.rail" priority="20" numLanes="1" speed="44.44" allow="rail" oneway="1"/>
    <type id="railway.subway" priority="18" numLanes="1" speed="27.78" allow="rail_urban" oneway="1"/>
    <type id="railway.tram" priority="17" numLanes="1" speed="13.89" allow="tram" oneway="1"/>

    <edge id=":112613589_0" function="internal">
        <lane id=":112613589_0_0" index="0" disallow="tram rail_urban rail rail_electric rail_fast ship" speed="8.57" length="10.10" shape="678.48,1310.56 678.86,1312.91 679.90,1315.00 681.62,1316.83 684.01,1318.42"/>
    </edge>
    <edge id=":112613589_1" function="internal">
        <lane id=":112613589_1_0" index="0" disallow="tram rail_urban rail rail_electric rail_fast ship" speed="3.65" length="4.67" shape="678.48,1310.56 677.70,1311.77 676.91,1312.18 676.10,1311.80 675.28,1310.61"/>
    </edge>
    <edge id=":112613589_2" function="internal">
        <lane id=":112613589_2_0" index="0" disallow="tram rail_urban rail rail_electric rail_fast ship" speed="5.70" length="9.28" shape="669.46,1314.22 672.05,1315.19 673.88,1314.92 674.96,1313.39 675.28,1310.61"/>
    </edge>
    <edge id=":112613589_3" function="internal">
        <lane id=":112613589_3_0" index="0" disallow="tram rail_urban rail rail_electric rail_fast ship" speed="27.78" length="15.88" shape="669.46,1314.22 683.45,1321.74"/>
    </edge>
    <edge id=":112613589_4" function="internal">
        <lane id=":112613589_4_0" index="0" disallow="tram rail_urban rail rail_electric rail_fast ship" speed="27.78" length="17.88" shape="667.94,1317.03 672.87,1319.01 676.62,1319.74 680.06,1320.89 684.05,1324.09"/>
    </edge>
    <edge id=":112613596_0" function="internal">
        <lane id=":112613596_0_0" index="0" disallow="tram rail_urban rail rail_electric rail_fast ship" speed="20.84" length="12.44" shape="1011.10,1411.06 1014.93,1410.63 1017.67,1410.04 1020.16,1409.31 1023.24,1408.48"/>
    </edge>
    <edge id=":112613596_1" function="internal">
        <lane id=":112613596_1_0" index="0" disallow="tram rail_urban rail rail_electric rail_fast ship" speed="27.78" length="16.69" shape="1010.30,1414.33 1014.99,1413.84 1018.16,1413.20 1021.29,1412.33 1025.87,1411.14"/>
        <lane id=":112613596_1_1" index="1" disallow="tram rail_urban rail rail_electric rail_fast ship" speed="27.78" length="16.69" shape="1009.50,1417.60 1014.65,1417.08 1018.13,1416.43 1021.58,1415.53 1026.60,1414.25"/>
    </edge>
    <edge id=":112651995_0" function="internal">
        <lane id=":112651995_0_0" index="0" disallow="tram rail_urban rail rail_electric rail_fast ship" speed="10.12" length="5.50" shape="1516.43,1297.81 1514.88,1297.33 1513.76,1297.10 1512.64,1297.16 1511.07,1297.53"/>
    </edge>
    <edge id=":112651995_1" function="internal">
        <lane id=":112651995_1_0" index="0" disallow="tram rail_urban rail rail_electric rail_fast ship" speed="27.78" length="6.58" shape="1515.11,1293.03 1509.23,1294.72"/>
        <lane id=":112651995_1_1" index="1" disallow="tram rail_urban rail rail_electric rail_fast ship" speed="27.78" length="6.58" shape="1514.17,1289.97 1507.39,1291.90"/>
    </edge>
    <edge id=":112652014_0" function="internal">
        <lane id=":112652014_0_0" index="0" disallow="tram rail_urban rail rail_electric rail_fast ship" speed="27.78" length="9.51" shape="568.06,1287.95 565.82,1286.83 564.22,1286.18 562.54,1285.76 560.07,1285.34"/>
        <lane id=":112652014_0_1" index="1" disallow="tram rail_urban rail rail_electric rail_fast ship" speed="27.78" length="9.51" shape="569.51,1285.10 567.01,1283.85 565.22,1283.12 563.35,1282.66 560.58,1282.18"/>
        <lane id=":112652014_0_2" index="2" disallow="tram rail_urban rail rail_electric rail_fast ship" speed="27.78" length="9.51" shape="569.51,1285.10 566.97,1283.27 565.49,1281.49 563.92,1279.99 561.09,1279.02"/>
    </edge>
    <edge id=":112652932_0" function="internal">
        <lane id=":112652932_0_0" index="0" allow="private emergency authority army vip passenger hov taxi bus coach delivery truck trailer motorcycle evehicle custom1 custom2" speed="19.45" length="22.04" shape="2162.09,1020.39 2165.92,1019.32 2170.23,1017.32 2175.42,1014.47 2181.88,1010.87"/>
    </edge>
    <edge id=":112652932_1" function="internal">
        <lane id=":112652932_1_0" index="0" disallow="tram rail_urban rail rail_electric rail_fast ship" speed="27.78" length="24.50" shape="2161.47,1024.77 2183.41,1013.68"/>
        <lane id=":112652932_1_1" index="1" disallow="tram rail_urban rail rail_electric rail_fast ship" speed="27.78" length="24.50" shape="2163.16,1027.50 2184.95,1016.48"/>
    </edge>
    <edge id=":1221776530_0" function="internal">
        <lane id=":1221776530_0_0" index="0" disallow="tram rail_urban rail rail_electric rail_fast ship" speed="7.34" length="11.03" shape="1718.45,1332.39 1716.92,1329.38 1715.04,1327.47 1712.81,1326.64 1710.23,1326.89"/>
    </edge>
    <edge id=":1221776530_1" function="internal">
        <lane id=":1221776530_1_0" index="0" disallow="tram rail_urban rail rail_electric rail_fast ship" speed="13.89" length="16.97" shape="1718.45,1332.39 1712.96,1316.33"/>
    </edge>
    <edge id=":1221776530_2" function="internal">
        <lane id=":1221776530_2_0" index="0" disallow="tram rail_urban rail rail_electric rail_fast ship" speed="7.45" length="6.79" shape="1718.45,1332.39 1717.36,1327.70 1717.88,1325.79"/>
    </edge>
    <edge id=":1221776530_3" function="internal">
        <lane id=":1221776530_3_0" index="0" disallow="tram rail_urban rail rail_electric rail_fast ship" speed="3.65" length="2.34" shape="1718.45,1332.39 1718.77,1330.99 1719.38,1330.33"/>
    </edge>
    <edge id=":1221776530_20" function="internal">
        <lane id=":1221776530_20_0" index="0" disallow="tram rail_urban rail rail_electric rail_fast ship" speed="7.45" length="9.50" shape="1717.88,1325.79 1718.24,1324.49 1721.08,1322.75 1725.89,1322.49"/>
    </edge>
    <edge id=":1221776530_21" function="internal">
        <lane id=":1221776530_21_0" index="0" disallow="tram rail_urban rail rail_electric rail_fast ship" speed="3.65" length="2.34" shape="1719.38,1330.33 1720.27,1330.42 1721.44,1331.25"/>
    </edge>
    <edge id=":1221776530_4" function="internal">
        <lane id=":1221776530_4_0" index="0" disallow="tram rail_urban rail rail_electric rail_fast ship" speed="5.76" length="9.17" shape="1725.63,1325.68 1722.92,1325.82 1721.32,1326.80 1720.83,1328.61 1721.44,1331.25"/>
    </edge>
    <edge id=":1221776530_5" function="internal">
        <lane id=":1221776530_5_0" index="0" disallow="tram rail_urban rail rail_electric rail_fast ship" speed="13.89" length="15.52" shape="1725.63,1325.68 1721.79,1325.50 1717.86,1325.61 1713.96,1326.06 1710.23,1326.89"/>
    </edge>
    <edge id=":1221776530_6" function="internal">
        <lane id=":1221776530_6_0" index="0" disallow="tram rail_urban rail rail_electric rail_fast ship" speed="10.15" length="16.82" shape="1725.63,1325.68 1721.03,1324.78 1717.39,1322.93 1714.70,1320.11 1712.96,1316.33"/>
    </edge>
    <edge id=":1221776530_7" function="internal">
        <lane id=":1221776530_7_0" index="0" disallow="tram rail_urban rail rail_electric rail_fast ship" speed="3.65" length="4.67" shape="1725.63,1325.68 1724.50,1324.78 1724.16,1323.95 1724.63,1323.19 1725.89,1322.49"/>
    </edge>
    <edge id=":1221776530_8" function="internal">
        <lane id=":1221776530_8_0" index="0" disallow="tram rail_urban rail rail_electric rail_fast ship" speed="5.64" length="9.81" shape="1723.00,1316.49 1721.33,1318.87 1721.26,1320.67 1722.78,1321.87 1725.89,1322.49"/>
    </edge>
    <edge id=":1221776530_9" function="internal">
        <lane id=":1221776530_9_0" index="0" disallow="tram rail_urban rail rail_electric rail_fast ship" speed="10.31" length="15.66" shape="1723.00,1316.49 1721.00,1319.49 1720.07,1322.95 1720.22,1326.87 1721.44,1331.25"/>
    </edge>
    <edge id=":1221776530_10" function="internal">
        <lane id=":1221776530_10_0" index="0" disallow="tram rail_urban rail rail_electric rail_fast ship" speed="13.89" length="16.64" shape="1723.00,1316.49 1720.25,1319.47 1717.15,1322.55 1713.77,1325.20 1710.23,1326.89"/>
    </edge>
    <edge id=":1221776530_11" function="internal">
        <lane id=":1221776530_11_0" index="0" disallow="tram rail_urban rail rail_electric rail_fast ship" speed="6.69" length="13.58" shape="1723.00,1316.49 1719.54,1319.56 1716.71,1320.56 1714.52,1319.49 1712.96,1316.33"/>
    </edge>
    <edge id=":1221776530_12" function="internal">
        <lane id=":1221776530_12_0" index="0" disallow="tram rail_urban rail rail_electric rail_fast ship" speed="8.96" length="12.96" shape="1716.03,1315.42 1717.36,1318.27 1719.45,1320.39 1722.29,1321.80 1725.89,1322.49"/>
    </edge>
    <edge id=":1221776530_13" function="internal">
        <lane id=":1221776530_13_0" index="0" disallow="tram rail_urban rail rail_electric rail_fast ship" speed="13.89" length="16.73" shape="1716.03,1315.42 1721.44,1331.25"/>
    </edge>
    <edge id=":1221776530_14" function="internal">
        <lane id=":1221776530_14_0" index="0" disallow="tram rail_urban rail rail_electric rail_fast ship" speed="8.11" length="5.81" shape="1716.03,1315.42 1716.67,1319.52 1716.30,1321.14"/>
    </edge>
    <edge id=":1221776530_15" function="internal">
        <lane id=":1221776530_15_0" index="0" disallow="tram rail_urban rail rail_electric rail_fast ship" speed="3.65" length="2.34" shape="1716.03,1315.42 1715.60,1316.80 1714.95,1317.41"/>
    </edge>
    <edge id=":1221776530_22" function="internal">
        <lane id=":1221776530_22_0" index="0" disallow="tram rail_urban rail rail_electric rail_fast ship" speed="8.11" length="8.86" shape="1716.30,1321.14 1715.92,1322.79 1713.77,1325.25 1710.23,1326.89"/>
    </edge>
    <edge id=":1221776530_23" function="internal">
        <lane id=":1221776530_23_0" index="0" disallow="tram rail_urban rail rail_electric rail_fast ship" speed="3.65" length="2.34" shape="1714.95,1317.41 1714.07,1317.26 1712.96,1316.33"/>
    </edge>
    <edge id=":1221776530_16" function="internal">
        <lane id=":1221776530_16_0" index="0" disallow="tram rail_urban rail rail_electric rail_fast ship" speed="6.64" length="9.49" shape="1709.33,1323.82 1711.58,1322.77 1712.93,1321.17 1713.39,1319.02 1712.96,1316.33"/>
    </edge>
    <edge id=":1221776530_17" function="internal">
        <lane id=":1221776530_17_0" index="0" disallow="tram rail_urban rail rail_electric rail_fast ship" speed="13.89" length="16.68" shape="1709.33,1323.82 1713.25,1322.97 1717.54,1322.48 1721.87,1322.33 1725.89,1322.49"/>
    </edge>
    <edge id=":1221776530_18" function="internal">
        <lane id=":1221776530_18_0" index="0" disallow="tram rail_urban rail rail_electric rail_fast ship" speed="8.69" length="15.89" shape="1709.33,1323.82 1713.22,1323.37 1716.53,1324.46 1719.27,1327.09 1721.44,1331.25"/>
    </edge>
    <edge id=":1221776530_19" function="internal">
        <lane id=":1221776530_19_0" index="0" disallow="tram rail_urban rail rail_electric rail_fast ship" speed="3.65" length="4.67" shape="1709.33,1323.82 1710.71,1324.25 1711.32,1324.91 1711.16,1325.79 1710.23,1326.89"/>
    </edge>
    <edge id=":1223751746_0" function="internal">
        <lane id=":1223751746_0_0" index="0" allow="pedestrian delivery bicycle" speed="3.65" length="4.67" shape="1384.07,498.48 1384.93,497.32 1385.75,496.96 1386.53,497.40 1387.27,498.64"/>
    </edge>
    <edge id=":1223751757_0" function="internal">
        <lane id=":1223751757_0_0" index="0" allow="custom1" speed="5.47" length="9.83" shape="1384.36,535.55 1383.85,532.43 1384.47,530.79 1386.21,530.64 1389.08,531.96"/>
    </edge>
    <edge id=":1223751757_1" function="internal">
        <lane id=":1223751757_1_0" index="0" allow="pedestrian delivery bicycle" speed="7.77" length="8.29" shape="1386.02,524.69 1386.12,527.12 1386.66,529.15 1387.65,530.76 1389.08,531.96"/>
    </edge>
    <edge id=":1223751757_2" function="internal">
        <lane id=":1223751757_2_0" index="0" allow="pedestrian delivery bicycle" speed="3.65" length="4.67" shape="1386.02,524.69 1385.16,525.85 1384.34,526.21 1383.56,525.78 1382.82,524.54"/>
    </edge>
    <edge id=":1223751757_3" function="internal">
        <lane id=":1223751757_3_0" index="0" allow="pedestrian delivery bicycle" speed="5.08" length="6.49" shape="1377.95,526.32 1380.01,526.97 1381.51,526.89 1382.45,526.08 1382.82,524.54"/>
    </edge>
    <edge id=":1223751757_4" function="internal">
        <lane id=":1223751757_4_0" index="0" disallow="tram rail_urban rail rail_electric rail_fast ship" speed="22.22" length="12.49" shape="1377.95,526.32 1381.02,527.68 1383.63,528.92 1386.18,530.27 1389.08,531.96"/>
    </edge>
    <edge id=":128560419_0" function="internal">
        <lane id=":128560419_0_0" index="0" disallow="tram rail_urban rail rail_electric rail_fast ship" speed="6.70" length="11.81" shape="450.20,648.01 449.47,645.84 447.59,644.79 444.56,644.86 440.38,646.03"/>
    </edge>
    <edge id=":128560419_1" function="internal">
        <lane id=":128560419_1_0" index="0" disallow="tram rail_urban rail rail_electric rail_fast ship" speed="27.78" length="16.24" shape="450.20,648.01 449.59,631.78"/>
    </edge>
    <edge id=":128560419_2" function="internal">
        <lane id=":128560419_2_0" index="0" disallow="tram rail_urban rail rail_electric rail_fast ship" speed="3.65" length="2.34" shape="450.20,648.01 450.93,646.76 451.71,646.32"/>
    </edge>
    <edge id=":128560419_15" function="internal">
        <lane id=":128560419_15_0" index="0" disallow="tram rail_urban rail rail_electric rail_fast ship" speed="3.65" length="2.34" shape="451.71,646.32 452.53,646.67 453.39,647.83"/>
    </edge>
    <edge id=":128560419_3" function="internal">
        <lane id=":128560419_3_0" index="0" disallow="tram rail_urban rail rail_electric rail_fast ship" speed="9.74" length="14.46" shape="458.74,635.24 456.20,637.19 454.47,639.94 453.53,643.49 453.39,647.83"/>
    </edge>
    <edge id=":128560419_4" function="internal">
        <lane id=":128560419_4_0" index="0" disallow="tram rail_urban rail rail_electric rail_fast ship" speed="18.06" length="21.31" shape="458.74,635.24 454.67,637.68 449.66,640.87 444.61,643.95 440.38,646.03"/>
    </edge>
    <edge id=":128560419_5" function="internal">
        <lane id=":128560419_5_0" index="0" disallow="tram rail_urban rail rail_electric rail_fast ship" speed="6.65" length="12.87" shape="458.74,635.24 454.79,636.81 451.94,636.76 450.21,635.08 449.59,631.78"/>
    </edge>
    <edge id=":128560419_6" function="internal">
        <lane id=":128560419_6_0" index="0" disallow="tram rail_urban rail rail_electric rail_fast ship" speed="27.78" length="16.11" shape="452.79,631.73 453.39,647.83"/>
    </edge>
    <edge id=":128560419_7" function="internal">
        <lane id=":128560419_7_0" index="0" disallow="tram rail_urban rail rail_electric rail_fast ship" speed="10.90" length="5.91" shape="452.79,631.73 452.07,636.27 451.40,637.40"/>
    </edge>
    <edge id=":128560419_8" function="internal">
        <lane id=":128560419_8_0" index="0" disallow="tram rail_urban rail rail_electric rail_fast ship" speed="3.65" length="2.34" shape="452.79,631.73 452.01,632.94 451.22,633.35"/>
    </edge>
    <edge id=":128560419_16" function="internal">
        <lane id=":128560419_16_0" index="0" disallow="tram rail_urban rail rail_electric rail_fast ship" speed="10.90" length="14.37" shape="451.40,637.40 449.77,640.17 445.87,643.42 440.38,646.03"/>
    </edge>
    <edge id=":128560419_17" function="internal">
        <lane id=":128560419_17_0" index="0" disallow="tram rail_urban rail rail_electric rail_fast ship" speed="3.65" length="2.34" shape="451.22,633.35 450.41,632.96 449.59,631.78"/>
    </edge>
    <edge id=":128560419_9" function="internal">
        <lane id=":128560419_9_0" index="0" allow="custom1" speed="8.45" length="14.99" shape="437.83,638.84 443.01,637.98 446.70,636.51 448.89,634.45 449.59,631.78"/>
    </edge>
    <edge id=":128560419_10" function="internal">
        <lane id=":128560419_10_0" index="0" allow="custom1" speed="9.37" length="20.46" shape="437.83,638.84 444.42,638.87 449.21,640.38 452.20,643.36 453.39,647.83"/>
    </edge>
    <edge id=":128560419_11" function="internal">
        <lane id=":128560419_11_0" index="0" allow="custom1" speed="5.16" length="10.62" shape="437.83,638.84 440.57,639.59 442.18,641.74 442.26,644.24 440.38,646.03"/>
    </edge>
    <edge id=":128560419_12" function="internal">
        <lane id=":128560419_12_0" index="0" disallow="tram rail_urban rail rail_electric rail_fast ship" speed="9.89" length="16.58" shape="439.00,643.13 443.68,640.96 447.00,638.34 448.97,635.28 449.59,631.78"/>
    </edge>
    <edge id=":128560419_13" function="internal">
        <lane id=":128560419_13_0" index="0" disallow="tram rail_urban rail rail_electric rail_fast ship" speed="8.20" length="18.31" shape="439.00,643.13 445.10,641.53 449.53,641.78 452.29,643.88 453.39,647.83"/>
    </edge>
    <edge id=":128560419_14" function="internal">
        <lane id=":128560419_14_0" index="0" disallow="tram rail_urban rail rail_electric rail_fast ship" speed="3.66" length="2.61" shape="439.00,643.13 440.44,643.34 441.14,643.89 441.14,644.16"/>
    </edge>
    <edge id=":128560419_18" function="internal">
        <lane id=":128560419_18_0" index="0" disallow="tram rail_urban rail rail_electric rail_fast ship" speed="3.66" length="2.08" shape="441.14,644.16 441.12,644.79 440.38,646.03"/>
    </edge>
    <edge id=":128560421_0" function="internal">
        <lane id=":128560421_0_0" index="0" disallow="tram rail_urban rail rail_electric rail_fast ship" speed="6.39" length="9.04" shape="455.20,495.13 454.94,497.61 455.54,499.54 457.02,500.92 459.38,501.74"/>
    </edge>
    <edge id=":128560421_1" function="internal">
        <lane id=":128560421_1_0" index="0" disallow="tram rail_urban rail rail_electric rail_fast ship" speed="27.78" length="11.36" shape="455.20,495.13 454.43,498.21 453.89,500.65 453.45,503.11 452.96,506.26"/>
    </edge>
    <edge id=":128560421_2" function="internal">
        <lane id=":128560421_2_0" index="0" disallow="tram rail_urban rail rail_electric rail_fast ship" speed="3.65" length="2.34" shape="455.20,495.13 454.13,496.09 453.26,496.28"/>
    </edge>
    <edge id=":128560421_6" function="internal">
        <lane id=":128560421_6_0" index="0" disallow="tram rail_urban rail rail_electric rail_fast ship" speed="3.65" length="2.34" shape="453.26,496.28 452.58,495.69 452.10,494.33"/>
    </edge>
    <edge id=":128560421_3" function="internal">
        <lane id=":128560421_3_0" index="0" disallow="tram rail_urban rail rail_electric rail_fast ship" speed="27.78" length="11.70" shape="449.80,505.79 450.29,502.60 450.76,500.02 451.32,497.47 452.10,494.33"/>
    </edge>
    <edge id=":128560421_4" function="internal">
        <lane id=":128560421_4_0" index="0" disallow="tram rail_urban rail rail_electric rail_fast ship" speed="7.23" length="4.15" shape="449.80,505.79 450.72,503.37 451.95,502.42"/>
    </edge>
    <edge id=":128560421_5" function="internal">
        <lane id=":128560421_5_0" index="0" disallow="tram rail_urban rail rail_electric rail_fast ship" speed="3.65" length="2.34" shape="449.80,505.79 450.76,504.72 451.61,504.44"/>
    </edge>
    <edge id=":128560421_7" function="internal">
        <lane id=":128560421_7_0" index="0" disallow="tram rail_urban rail rail_electric rail_fast ship" speed="7.23" length="7.68" shape="451.95,502.42 452.62,501.89 455.50,501.35 459.38,501.74"/>
    </edge>
    <edge id=":128560421_8" function="internal">
        <lane id=":128560421_8_0" index="0" disallow="tram rail_urban rail rail_electric rail_fast ship" speed="3.65" length="2.34" shape="451.61,504.44 452.35,504.95 452.96,506.26"/>
    </edge>
    <edge id=":128560423_0" function="internal">
        <lane id=":128560423_0_0" index="0" disallow="tram rail_urban rail rail_electric rail_fast ship" speed="27.78" length="14.59" shape="473.44,422.85 470.08,437.05"/>
    </edge>
    <edge id=":128560423_1" function="internal">
        <lane id=":128560423_1_0" index="0" disallow="tram rail_urban rail rail_electric rail_fast ship" speed="8.17" length="6.03" shape="473.44,422.85 472.09,426.43 470.57,428.02"/>
    </edge>
    <edge id=":128560423_2" function="internal">
        <lane id=":128560423_2_0" index="0" disallow="tram rail_urban rail rail_electric rail_fast ship" speed="3.65" length="2.34" shape="473.44,422.85 472.40,423.85 471.54,424.07"/>
    </edge>
    <edge id=":128560423_9" function="internal">
        <lane id=":128560423_9_0" index="0" disallow="tram rail_urban rail rail_electric rail_fast ship" speed="8.17" length="8.33" shape="470.57,428.02 469.86,428.77 466.75,429.87 462.75,429.72"/>
    </edge>
    <edge id=":128560423_10" function="internal">
        <lane id=":128560423_10_0" index="0" disallow="tram rail_urban rail rail_electric rail_fast ship" speed="3.65" length="2.34" shape="471.54,424.07 470.84,423.51 470.31,422.17"/>
    </edge>
    <edge id=":128560423_3" function="internal">
        <lane id=":128560423_3_0" index="0" disallow="tram rail_urban rail rail_electric rail_fast ship" speed="6.71" length="9.35" shape="463.30,426.57 465.93,426.67 467.97,425.98 469.43,424.48 470.31,422.17"/>
    </edge>
    <edge id=":128560423_4" function="internal">
        <lane id=":128560423_4_0" index="0" disallow="tram rail_urban rail rail_electric rail_fast ship" speed="7.86" length="14.50" shape="463.30,426.57 467.12,427.81 469.52,429.97 470.51,433.05 470.08,437.05"/>
    </edge>
    <edge id=":128560423_5" function="internal">
        <lane id=":128560423_5_0" index="0" disallow="tram rail_urban rail rail_electric rail_fast ship" speed="3.65" length="4.67" shape="463.30,426.57 464.34,427.56 464.60,428.42 464.07,429.14 462.75,429.72"/>
    </edge>
    <edge id=":128560423_6" function="internal">
        <lane id=":128560423_6_0" index="0" disallow="tram rail_urban rail rail_electric rail_fast ship" speed="6.34" length="9.04" shape="466.98,436.25 467.25,433.76 466.63,431.84 465.13,430.50 462.75,429.72"/>
    </edge>
    <edge id=":128560423_7" function="internal">
        <lane id=":128560423_7_0" index="0" disallow="tram rail_urban rail rail_electric rail_fast ship" speed="27.78" length="14.47" shape="466.98,436.25 470.31,422.17"/>
    </edge>
    <edge id=":128560423_8" function="internal">
        <lane id=":128560423_8_0" index="0" disallow="tram rail_urban rail rail_electric rail_fast ship" speed="3.65" length="2.34" shape="466.98,436.25 468.05,435.29 468.93,435.10"/>
    </edge>
    <edge id=":128560423_11" function="internal">
        <lane id=":128560423_11_0" index="0" disallow="tram rail_urban rail rail_electric rail_fast ship" speed="3.65" length="2.34" shape="468.93,435.10 469.60,435.69 470.08,437.05"/>
    </edge>
    <edge id=":128560426_0" function="internal">
        <lane id=":128560426_0_0" index="0" disallow="tram rail_urban rail rail_electric rail_fast ship" speed="27.78" length="11.76" shape="492.86,348.54 491.16,351.31 489.85,353.61 488.82,356.03 487.91,359.13"/>
    </edge>
    <edge id=":128560426_1" function="internal">
        <lane id=":128560426_1_0" index="0" disallow="tram rail_urban rail rail_electric rail_fast ship" speed="27.78" length="11.80" shape="484.80,358.38 485.49,355.20 485.89,352.59 486.12,349.95 486.34,346.70"/>
    </edge>
    <edge id=":128571476_0" function="internal">
        <lane id=":128571476_0_0" index="0" allow="private emergency authority army vip passenger hov taxi bus coach delivery truck trailer motorcycle evehicle custom1 custom2" speed="13.89" length="2.56" shape="574.59,331.34 572.05,331.63"/>
    </edge>
    <edge id=":128571476_1" function="internal">
        <lane id=":128571476_1_0" index="0" allow="private emergency authority army vip passenger hov taxi bus coach delivery truck trailer motorcycle evehicle custom1 custom2" speed="13.89" length="6.29" shape="575.16,328.02 568.90,328.71"/>
    </edge>
    <edge id=":128571476_2" function="internal">
        <lane id=":128571476_2_0" index="0" allow="private emergency authority army vip passenger hov taxi bus coach delivery truck trailer motorcycle evehicle custom1 custom2" speed="18.06" length="15.14" shape="575.72,324.70 570.96,325.07 567.33,324.70 564.20,323.82 560.93,322.66"/>
    </edge>
    <edge id=":128571479_0" function="internal">
        <lane id=":128571479_0_0" index="0" allow="private emergency authority army vip passenger hov taxi bus coach delivery truck trailer motorcycle evehicle custom1 custom2" speed="13.89" length="7.56" shape="728.50,293.08 726.63,294.34 725.52,295.49 724.38,296.57 722.41,297.61"/>