<?xml version="1.0" encoding="UTF-8"?>

<!-- generated on 05/11/21 15:45:52 by Eclipse SUMO duarouter Version 1.8.0
<configuration xmlns:xsi="http://www.w3.org/2001/XMLSchema-instance" xsi:noNamespaceSchemaLocation="http://sumo.dlr.de/xsd/duarouterConfiguration.xsd">

    <input>
        <net-file value="input/feup.net.xml"/>
        <route-files value="output/trips.trips.xml"/>
    </input>

    <output>
        <output-file value="output/original.rou.xml"/>
        <alternatives-output value="output/original.rou.alt.xml"/>
    </output>

</configuration>
-->

<routes xmlns:xsi="http://www.w3.org/2001/XMLSchema-instance" xsi:noNamespaceSchemaLocation="http://sumo.dlr.de/xsd/routes_file.xsd">
    <vehicle id="1" depart="1.00">
        <route edges="-455315148#1 455315148#1 455315148#2 35145272#0 35145272#1 35145272#2 35145272#3 35145521#4 704870100#1 316459169#0 316459169#1 704870101#1 704870101#2 704870101#3 704870101#4 704870102#1 286085489 35997762 643196111#6 643196111#7 643196111#8 643196111#9 643196111#10 349643894 36996353#1 36996353#2 36996354#0 36996354#1 -37352974#1"/>
    </vehicle>
    <vehicle id="2" depart="2.00">
        <route edges="37352974#1 -36996354#1 -36996354#0 36996353#4 -37120131#3 37120131#3"/>
    </vehicle>
    <vehicle id="3" depart="3.00">
        <route edges="461925679#0 -461925680 -141476900#0 536710726 440389517#1 643196100 440117025 706918119#0 706918119#1 706918119#2 706918119#3 706918119#4 706918119#5 35145153 448858674#0 448858674#1 448858674#2 35145272#0 35145272#1 35145272#2 35145272#3 35145521#4 704870100#1 456118771#1 456118771#2 667439829#0 667439829#1 -208265320#0"/>
    </vehicle>
    <vehicle id="4" depart="4.00">
        <route edges="195652232#1 -195652232#1 -195652240#1 195652231#0 -195652231#0"/>
    </vehicle>
    <vehicle id="5" depart="5.00">
        <route edges="-37338735#0 37338734#1 240884741#0 240884741#1 240884741#2 -166972992#6 -166972992#4 -166972992#3 -166972992#2 -166972992#1 -166972992#0 434878392#0 434878392#1 434878392#2 434878392#5 434878392#5-AddedOffRampEdge 434878392#6 434878392#8 741581305#0 741581305#1 643196103#0 26248559#0 26248559#1 26248559#2 26248559#3"/>
    </vehicle>
    <vehicle id="6" depart="6.00">
        <route edges="-166972992#4 166972992#4 166972992#5 256605509#0 37338734#0 37338734#1 37143412#0 37143412#1 256605511#0 256605511#1 280570948 440389517#5 440389517#6 440389517#1 643196100 440117025 706918119#0 706918119#1 706918119#2 706918119#3 706918119#4 706918119#5 35145153 448858674#0 448858674#1 448858674#2 35145272#0 35145272#1 35145272#2 35145272#3 35145521#4 37141968#0 37141968#1 37141968#2 -37141968#2"/>
    </vehicle>
    <vehicle id="7" depart="7.00">
        <route edges="36905352#0 36905352#1 36996745 -37120135#4 -37120135#3 -37120135#1 -37120135#0 643196111#9 643196111#10 643196111#11 643196111#12-AddedOnRampEdge 643196111#12 743539877 643196107 741581306 434879919#1 434879919#2 434879919#3 434879919#3-AddedOffRampEdge 434879919#4 434879919#5-AddedOnRampEdge 434879919#5 35997529#0 35997529#4 35997529#5 35997529#6 35997529#7 35997529#8 35997529#9 -311394893#8 -311394893#7 -311394893#6 311394893#6"/>
    </vehicle>
    <vehicle id="8" depart="8.00">
        <route edges="-37338735#1 -37338735#0 37338734#1 37143412#0 37143412#1 256605511#0 256605511#1 280570948 440389517#5 440389517#6 440389517#1 643196100 440117025 706918119#0 706918119#1 706918119#2 706918119#3 706918119#4 706918119#5 35145153 448858674#0 448858674#1 448858674#2 35145272#0 35145272#1 35145272#2 35145272#3"/>
    </vehicle>
    <vehicle id="9" depart="9.00">
        <route edges="434879919#3 434879919#3-AddedOffRampEdge 434879919#4 434879919#5-AddedOnRampEdge 434879919#5 434878392#5 434878392#5-AddedOffRampEdge 434878392#6 434878392#8 741581305#0 741581305#1 643196103#0 26248559#0 26248559#1 26248559#2 26248559#3 26248559#4 26248559#5 26248559#7 26248559#10 26248559#11 440389519 -706918119#5 -706918119#4 -706918119#3 -706918119#2 -706918119#1 -706918119#0 440117023 440389517#3 440389517#4 440389517#5 440389516 536710725 141476900#1 141476900#2 -141476900#2"/>
    </vehicle>
    <vehicle id="10" depart="10.00">
        <route edges="434879919#10 434879919#11 351525662 434878392#0 434878392#1 434878392#2 434878392#5 434878392#5-AddedOffRampEdge 434878392#6 434878392#8 741581305#0 741581305#1 643196103#0 26248559#0 26248559#1 26248559#2 26248559#3 26248559#4 26248559#5 26248559#7 26248559#10 26248559#11 35145522 448858674#0 448858674#1 448858674#2 35145272#0 35145272#1 35145272#2 35145272#3 35145521#4 37141968#0 37141968#1 37141968#2 461925686#0 461925686#1 461925686#2 461925686#3 37141982"/>
    </vehicle>
    <vehicle id="11" depart="11.00">
        <route edges="-549753672 36996354#1 36996354#2 37120133#1 434879919#1 434879919#2 434879919#3 434879919#3-AddedOffRampEdge 434879919#4 434879919#5-AddedOnRampEdge 434879919#5 35997529#0 -35997529#2"/>
    </vehicle>
    <vehicle id="12" depart="12.00">
        <route edges="643196111#6 643196111#7 643196111#8 643196111#9 643196111#10 643196111#11 643196111#12-AddedOnRampEdge 643196111#12 643196103#0 26248559#0 26248559#1 26248559#2 26248559#3 26248559#4 26248559#5 26248559#7 26248559#10 26248559#11 440389519 -706918119#5 -706918119#4 -706918119#3 -706918119#2 -706918119#1 -706918119#0 -440117025 -643196100"/>
    </vehicle>
    <vehicle id="14" depart="14.00">
        <route edges="448858674#2 35145272#0 35145272#1 35145272#2 35145272#3 35145521#4 704870100#1 316459169#0 316459169#1 704870101#1 704870101#2 704870101#3 704870101#4 704870102#1 286085489 35997762 643196111#6 643196111#7 643196111#8 643196111#9 643196111#10 643196111#11 643196111#12-AddedOnRampEdge 643196111#12 36001071 286085490#1 160379543#1 160379543#2 351525659#3"/>
    </vehicle>
    <vehicle id="15" depart="15.00">
        <route edges="434879919#11 351525662 434878392#0 434878392#1 434878392#2 434878392#5 434878392#5-AddedOffRampEdge 37855519#0 37855519#1 37855523#0 37855521"/>
    </vehicle>
    <vehicle id="17" depart="17.00">
        <route edges="13797865#1 13798716#1 -256605510#1 -256605510#0 -256605509#1 -166972992#6 -166972992#4 -166972992#3 37855525#0 37855525#1 -311394895#5 -311394895#4 -311394895#3 311394895#3"/>
    </vehicle>
    <vehicle id="18" depart="18.00">
        <route edges="440389517#3 440389515 -256605511#1 -256605511#0 -35997529#12 -35997529#11 -35997529#10 -35997529#9 -35997529#8 -35997529#7 -35997529#6 -35997529#5 35997529#5"/>
    </vehicle>
    <vehicle id="19" depart="19.00">
        <route edges="456118771#1 37141967#1 316459169#0 349643887 36979228#0 36979228#1 36979228#2 36979228#3 36979228#4 36979228#5 36979228#6 36979228#8 26248559#7 26248559#10 26248559#11 35145522 448858674#0 448858674#1 448858674#2 -35145152#4 -35145152#3 -35145152#2 -35145152#1 35145152#1"/>
    </vehicle>
    <vehicle id="20" depart="20.00">
        <route edges="37141968#1 -37141968#1 -37141968#0 704870100#1 316459169#0 349643887 36979228#0 36979228#1 36979228#2 36979228#3 36979228#4 36979228#5 36979228#6 36979228#8 26248559#7 26248559#10 26248559#11 440389519 -706918119#5 -706918119#4 -706918119#3 -706918119#2 -706918119#1 -706918119#0 440117023 440389517#3 440389515 -256605511#1 -256605511#0 -35997529#12 -35997529#11 -35997529#10 195652234#1 195652234#2 195652234#3 -195652234#3"/>
    </vehicle>
    <vehicle id="21" depart="21.00">
        <route edges="-37855522 197100021#1 197100021#2 -35997529#2 434879919#7 434879919#10 434879919#11 351525662 166972992#0 166972992#1 166972992#2 166972992#3 166972992#4 311394893#0 456394706#0 -456394706#2"/>
    </vehicle>
    <vehicle id="22" depart="22.00">
        <route edges="-200207562#1 200207562#1 63844506#2 63844506#3 434878392#0 434878392#1 37855528 35997529#4 -37855523#5"/>
    </vehicle>
    <vehicle id="23" depart="23.00">
        <route edges="-26248564#2 26248564#2 643196095 448858672#0 448858672#1 37143413#1 37143413#2 37143413#3 240884741#0 -456394702#2 -456394702#1"/>
    </vehicle>
    <vehicle id="25" depart="25.00">
        <route edges="-706918119#4 -706918119#3 -706918119#2 -706918119#1 -706918119#0 440117023 440389517#3 440389517#4 440389517#5 440389516 536710725 141476900#1 141476900#2 448858672#0 448858672#1 37143413#1 -37143413#1"/>
    </vehicle>
    <vehicle id="28" depart="28.00">
        <route edges="-36996353#4 -36996353#2 -36996353#1 349643891 643196111#12-AddedOnRampEdge 643196111#12 743539877 643196107 741581306 434879919#1 434879919#2 434879919#3 434879919#3-AddedOffRampEdge 434879919#4 434879919#5-AddedOnRampEdge 434879919#5 434878392#5 434878392#5-AddedOffRampEdge 37855519#0 37855519#1 37855523#0 37855521"/>
    </vehicle>
    <vehicle id="30" depart="30.00">
        <route edges="706918119#4 706918119#5 35145153 448858674#0 448858674#1 448858674#2 35145272#0 35145272#1 35145272#2 35145272#3 35145521#4 704870100#1 316459169#0 316459169#1 704870101#1 704870101#2 704870101#3 704870101#4 704870102#1 286085489 35997762 36905352#0 36905352#1"/>
    </vehicle>
    <vehicle id="31" depart="31.00">
        <route edges="311394893#7 311394893#8 -35997529#9 -35997529#8 -35997529#7 -35997529#6 -35997529#5 -35997529#4 -35997529#2 434878392#5 434878392#5-AddedOffRampEdge 434878392#6 434878392#8 741581305#0 741581305#1 209633323 220234010#0 220234010#1 468686243#0 468686243#1 643196111#3 643196111#4 643196111#5 643196111#6 643196111#7 643196111#8 37120135#0 37120135#1 37120135#3"/>
    </vehicle>
    <vehicle id="32" depart="32.00">
        <route edges="448858672#1 -37143413#0 -448858672#0 -141476900#2 -141476900#1 -141476900#0 536710726 440389517#1 643196100 440117025 706918119#0 706918119#1 706918119#2 706918119#3 706918119#4 706918119#5 35145153 448858674#0 448858674#1 448858674#2 35145272#0 35145272#1 35145272#2 35145272#3 35145521#4 37141968#0 37141968#1 37141968#2 461925686#0 429123180#0"/>
    </vehicle>
    <vehicle id="33" depart="33.00">
        <route edges="-37855523#0 37855523#0 197100021#0 197100021#1 197100021#2 35997529#4 35997529#5 195652243#0 195652243#1 -195652232#6 -195652232#4 -195652232#3 -195652232#2 -195652232#1 -195652232#0"/>
    </vehicle>
    <vehicle id="34" depart="34.00">
        <route edges="-461925688 -455315145#0 -461925686#1 -461925686#0 -37141968#2 -37141968#1 -37141968#0 704870100#1 316459169#0 349643887 36979228#0 36979228#1 36979228#2 36979228#3 36979228#4 36979228#5 36979228#6 36979228#8 26248559#7 26248559#10 26248559#11 35145522 448858674#0 448858674#1 448858674#2 -455315148#2 -455315148#1"/>
    </vehicle>
    <vehicle id="35" depart="35.00">
        <route edges="-37194468 36996747#2 -37120135#4 -37120135#3 -37120135#1 -37120135#0 643196111#9 643196111#10"/>
    </vehicle>
    <vehicle id="36" depart="36.00">
        <route edges="456394705#0 -456394705#0 311394893#7 311394893#8 35997529#10 35997529#11 35997529#12 256605511#0 256605511#1 280570948 440389517#5 440389516 536710725 141476900#1 141476900#2 -643196095 -26248564#2 -478627085#1"/>
    </vehicle>
    <vehicle id="37" depart="37.00">
        <route edges="36979228#0 36979228#1 36979228#2 36979228#3 36979228#4 36979228#5 36979228#6 36979228#8 26248559#7 26248559#10 26248559#11 440389519 -706918119#5 -706918119#4 -706918119#3 -706918119#2 -706918119#1 -706918119#0 440117023 440389517#3 440389515 -256605511#1 -256605511#0 -35997529#12 -35997529#11 -35997529#10 -35997529#9 -35997529#8 -35997529#7 -35997529#6 -35997529#5 -35997529#4 -35997529#2 434878392#5 434878392#5-AddedOffRampEdge 434878392#6 434878392#8 741581305#0 741581305#1 36001071 286085490#1 160379543#1 160379543#2 351525659#3 351525659#4 160379545 160379547#0 160379547#1"/>
    </vehicle>
    <vehicle id="38" depart="38.00">
        <route edges="480746899#0 -311394892#2 -311394892#1 -311394892#0 -311394893#7 -311394893#6 -311394893#5 -311394893#4 -311394893#3 -311394893#1 -200205516#4 -200205516#3 -200205516#2 200205516#2"/>
    </vehicle>
    <vehicle id="40" depart="40.00">
        <route edges="311394895#1 -311394895#1 -311394895#0 -195652234#4 -195652234#3 -195652234#2 -195652234#1 35997529#10 35997529#11 35997529#12 256605511#0 256605511#1 280570948 440389517#5 440389517#6 440389517#1 643196100 440117025 706918119#0 706918119#1 706918119#2 706918119#3 706918119#4 706918119#5 35145153 448858674#0 448858674#1 448858674#2 35145272#0 35145272#1 35145272#2 35145272#3 35145521#4 37141968#0 37141968#1 37141968#2 461925686#0 461925686#1 455315145#0 -455315145#0"/>
    </vehicle>
    <vehicle id="42" depart="42.00">
        <route edges="160379543#2 351525659#3 351525659#4 351525659#0 351525659#1 351525660#0 434878389#1 349643787#0 349643787#1 349643787#2 349643787#3 209633322#1 286085489 35997762 643196111#6 643196111#7 643196111#8 643196111#9 643196111#10 643196111#11 643196111#12-AddedOnRampEdge 643196111#12 643196103#0 26248559#0 26248559#1 26248559#2 26248559#3 26248559#4 26248559#5 26248559#7 26248559#10 26248559#11 35145522 448858674#0 448858674#1 448858674#2 35145272#0 35145272#1 35145272#2 35145272#3 35145521#4 704870100#1 456118771#1 456118771#2 667439829#0 667439829#1 667439829#2 667439829#3 667439829#4 37338733 -37338733"/>
    </vehicle>
    <vehicle id="43" depart="43.00">
        <route edges="743532993 741581305#0 741581305#1 643196103#0 26248559#0 26248559#1 26248559#2 26248559#3 26248559#4 26248559#5 26248559#7"/>
    </vehicle>
    <vehicle id="44" depart="44.00">
        <route edges="-254724123 37855527#1 166972992#2 37855525#0 37855525#1 -311394895#5 -311394895#4 -311394895#3 -311394895#1 -311394895#0 -195652234#4"/>
    </vehicle>
    <vehicle id="45" depart="45.00">
        <route edges="-311394892#1 -311394892#0 311394893#8 -35997529#9 -35997529#8 -35997529#7 -35997529#6 -35997529#5 -35997529#4 -35997529#2 434878392#5 434878392#5-AddedOffRampEdge 434878392#6 434878392#8 741581305#0 741581305#1 209633323 220234010#0 220234010#1 468686243#0 468686243#1 35997763#0"/>
    </vehicle>
    <vehicle id="46" depart="46.00">
        <route edges="434878389#1 349643787#0 349643787#1 349643787#2 349643787#3 209633322#1 286085489 35997762 643196111#6 643196111#7 643196111#8 643196111#9 643196111#10 643196111#11 643196111#12-AddedOnRampEdge 643196111#12 643196103#0 26248559#0 26248559#1 26248559#2 26248559#3 26248559#4 26248559#5 26248559#7 26248559#10 26248559#11 440389519 -706918119#5 -706918119#4 -706918119#3 -706918119#2 -706918119#1 -706918119#0 440117023 440389517#3 440389515 -256605511#1 -256605511#0 -35997529#12 -35997529#11 -35997529#10 195652234#1"/>
    </vehicle>
    <vehicle id="47" depart="47.00">
        <route edges="-198248722#0 26248564#2 643196095 448858672#0 448858672#1 37143413#1 37143413#2 37143413#3 240884741#0 240884741#1 240884741#2 -166972992#6 -166972992#4 -166972992#3 -166972992#2 -166972992#1 -166972992#0 434878392#0 434878392#1 434878392#2 434878392#5 434878392#5-AddedOffRampEdge 434878392#6 434878392#8 741581305#0 741581305#1 36001071 286085490#1 160379543#1 160379543#2 351525659#3 351525659#4 351525659#0 -160379536 160379534#0"/>
    </vehicle>
    <vehicle id="48" depart="48.00">
        <route edges="741581306 434879919#1 434879919#2 434879919#3 434879919#3-AddedOffRampEdge 434879919#4 434879919#5-AddedOnRampEdge 434879919#5 434879919#7 434879919#10 434879919#11 351525662 166972992#0 166972992#1 166972992#2 37855525#0 37855525#1 37855525#3 -195652231#1 311394890"/>
    </vehicle>
    <vehicle id="49" depart="49.00">
        <route edges="667439829#4 -667439829#4 -667439829#3 -667439829#2 -667439829#1 -667439829#0 37141967#0 37141967#1 316459169#0 349643887 36979228#0 36979228#1 36979228#2 36979228#3 36979228#4 36979228#5 36979228#6 36979228#8 26248559#7 26248559#10 26248559#11 440389519 -706918119#5 -706918119#4 -706918119#3 -706918119#2 -706918119#1 -706918119#0 440117023 440389517#3 440389515 -256605511#1 -256605511#0 -37143412#1 456394699#0 456394699#1"/>
    </vehicle>
</routes>
