<?xml version="1.0" encoding="UTF-8"?>
<!-- generated on 2021-05-20 18:09:47.616947 by $Id$ v1_8_0+0044-4820708f3d
  options: 
-->
<routes xmlns:xsi="http://www.w3.org/2001/XMLSchema-instance" xsi:noNamespaceSchemaLocation="http://sumo.dlr.de/xsd/routes_file.xsd">
    <trip id="0" depart="0.00" from="35997763#0" to="-166972992#4"/>
    <trip id="1" depart="20.00" from="-455315148#1" to="-37352974#1"/>
    <trip id="2" depart="40.00" from="37352974#1" to="37120131#3"/>
    <trip id="3" depart="60.00" from="461925679#0" to="-208265320#0"/>
    <trip id="4" depart="80.00" from="195652232#1" to="-195652231#0"/>
    <trip id="5" depart="100.00" from="-37338735#0" to="26248559#3"/>
    <trip id="6" depart="120.00" from="-166972992#4" to="-37141968#2"/>
    <trip id="7" depart="140.00" from="36905352#0" to="311394893#6"/>
    <trip id="8" depart="160.00" from="-37338735#1" to="35145272#3"/>
    <trip id="9" depart="180.00" from="434879919#3" to="-141476900#2"/>
    <trip id="10" depart="200.00" from="434879919#10" to="37141982"/>
    <trip id="11" depart="220.00" from="-549753672" to="-35997529#2"/>
    <trip id="12" depart="240.00" from="643196111#6" to="-643196100"/>
    <trip id="13" depart="260.00" from="-256605509#1" to="-256605510#1"/>
    <trip id="14" depart="280.00" from="448858674#2" to="351525659#3"/>
    <trip id="15" depart="300.00" from="434879919#11" to="37855521"/>
    <trip id="16" depart="320.00" from="308678934" to="680867340#1"/>
    <trip id="17" depart="340.00" from="13797865#1" to="311394895#3"/>
    <trip id="18" depart="360.00" from="440389517#3" to="35997529#5"/>
    <trip id="19" depart="380.00" from="456118771#1" to="35145152#1"/>
    <trip id="20" depart="400.00" from="37141968#1" to="-195652234#3"/>
    <trip id="21" depart="420.00" from="-37855522" to="-456394706#2"/>
    <trip id="22" depart="440.00" from="-200207562#1" to="-37855523#5"/>
    <trip id="23" depart="460.00" from="-26248564#2" to="-456394702#1"/>
    <trip id="24" depart="480.00" from="35997529#9" to="13797865#0-AddedOffRampEdge"/>
    <trip id="25" depart="500.00" from="-706918119#4" to="-37143413#1"/>
    <trip id="26" depart="520.00" from="-450904360#1" to="643196100"/>
    <trip id="27" depart="540.00" from="367477477" to="351525669"/>
    <trip id="28" depart="560.00" from="-36996353#4" to="37855521"/>
    <trip id="29" depart="580.00" from="-35997763#0" to="141476900#1"/>
    <trip id="30" depart="600.00" from="706918119#4" to="36905352#1"/>
    <trip id="31" depart="620.00" from="311394893#7" to="37120135#3"/>
    <trip id="32" depart="640.00" from="448858672#1" to="429123180#0"/>
    <trip id="33" depart="660.00" from="-37855523#0" to="-195652232#0"/>
    <trip id="34" depart="680.00" from="-461925688" to="-455315148#1"/>
    <trip id="35" depart="700.00" from="-37194468" to="643196111#10"/>
    <trip id="36" depart="720.00" from="456394705#0" to="-478627085#1"/>
    <trip id="37" depart="740.00" from="36979228#0" to="160379547#1"/>
    <trip id="38" depart="760.00" from="480746899#0" to="200205516#2"/>
    <trip id="39" depart="780.00" from="-450904360#0" to="-37856824"/>
    <trip id="40" depart="800.00" from="311394895#1" to="-455315145#0"/>
    <trip id="41" depart="820.00" from="35104970#2" to="461925688"/>
    <trip id="42" depart="840.00" from="160379543#2" to="-37338733"/>
    <trip id="43" depart="860.00" from="743532993" to="26248559#7"/>
    <trip id="44" depart="880.00" from="-254724123" to="-195652234#4"/>
    <trip id="45" depart="900.00" from="-311394892#1" to="35997763#0"/>
    <trip id="46" depart="920.00" from="434878389#1" to="195652234#1"/>
    <trip id="47" depart="940.00" from="-198248722#0" to="160379534#0"/>
    <trip id="48" depart="960.00" from="741581306" to="311394890"/>
    <trip id="49" depart="980.00" from="667439829#4" to="456394699#1"/>
    <trip id="50" depart="1000.00" from="-160379536" to="37338735#1"/>
    <trip id="51" depart="1020.00" from="36996747#2" to="311394893#0"/>
    <trip id="52" depart="1040.00" from="-450904360#1" to="36965446#0"/>
    <trip id="53" depart="1060.00" from="-311394892#2" to="195652240#0"/>
    <trip id="54" depart="1080.00" from="197100021#2" to="643196111#6"/>
    <trip id="55" depart="1100.00" from="456394705#0" to="-455315145#0"/>
    <trip id="56" depart="1120.00" from="252338683" to="-36996745"/>
    <trip id="57" depart="1140.00" from="478627085#1" to="456394705#0"/>
    <trip id="58" depart="1160.00" from="-456394706#2" to="36905352#1"/>
    <trip id="59" depart="1180.00" from="351525659#0" to="-35997529#11"/>
    <trip id="60" depart="1200.00" from="37855526#1" to="311394893#3"/>
    <trip id="61" depart="1220.00" from="37856823#0" to="311394891"/>
    <trip id="62" depart="1240.00" from="-108480588#0" to="-480746904#1"/>
    <trip id="63" depart="1260.00" from="-160379547#1" to="549753672"/>
    <trip id="64" depart="1280.00" from="456394705#2" to="448568801#1"/>
    <trip id="65" depart="1300.00" from="-461925680" to="-195653648"/>
    <trip id="66" depart="1320.00" from="456394705#1" to="643196111#12"/>
    <trip id="67" depart="1340.00" from="-209633322#0" to="240884741#1"/>
    <trip id="68" depart="1360.00" from="-198248726#3" to="37855531#1"/>
    <trip id="69" depart="1380.00" from="37855528" to="-311394895#3"/>
    <trip id="70" depart="1400.00" from="205638142#1" to="311394895#1"/>
    <trip id="71" depart="1420.00" from="-450904360#0" to="456394705#1"/>
    <trip id="72" depart="1440.00" from="195652232#2" to="-37143413#2"/>
    <trip id="73" depart="1460.00" from="311394890" to="37855521"/>
    <trip id="74" depart="1480.00" from="-37141975" to="-461925689#3"/>
    <trip id="75" depart="1500.00" from="741581305#1" to="36979228#4"/>
    <trip id="76" depart="1520.00" from="195652236#0" to="280570948"/>
    <trip id="77" depart="1540.00" from="-311394893#6" to="-37855520#0"/>
    <trip id="78" depart="1560.00" from="-51228960#3" to="35145272#2"/>
    <trip id="79" depart="1580.00" from="-37855523#2" to="-37338735#0"/>
    <trip id="80" depart="1600.00" from="-198248726#4" to="36001071"/>
    <trip id="81" depart="1620.00" from="-37855523#0" to="468686243#1"/>
    <trip id="82" depart="1640.00" from="455315148#2" to="-200205516#0"/>
    <trip id="83" depart="1660.00" from="-37855526#0" to="36996747#2"/>
    <trip id="84" depart="1680.00" from="-37202416#1" to="-311394895#5"/>
    <trip id="85" depart="1700.00" from="643196095" to="35078500"/>
    <trip id="86" depart="1720.00" from="200207562#1" to="434878392#0"/>
    <trip id="87" depart="1740.00" from="434879919#11" to="-37120135#0"/>
    <trip id="88" depart="1760.00" from="-256605511#0" to="195652236#1"/>
    <trip id="89" depart="1780.00" from="195652232#3" to="205638878#0"/>
    <trip id="90" depart="1800.00" from="37338734#0" to="37120131#0"/>
    <trip id="91" depart="1820.00" from="706918119#0" to="-256605511#0"/>
    <trip id="92" depart="1840.00" from="160379547#0" to="-667439829#1"/>
    <trip id="93" depart="1860.00" from="456118771#1" to="-429123180#0"/>
    <trip id="94" depart="1880.00" from="-37120135#1" to="198248722#1"/>
    <trip id="95" depart="1900.00" from="195652232#1" to="-456394702#1"/>
    <trip id="96" depart="1920.00" from="-37856824" to="51228960#3"/>
    <trip id="97" depart="1940.00" from="195652240#1" to="456394699#1"/>
    <trip id="98" depart="1960.00" from="311394893#3" to="-195652236#0"/>
    <trip id="99" depart="1980.00" from="743539877" to="448858672#1"/>
    <trip id="100" depart="2000.00" from="667439829#3" to="536710726"/>
    <trip id="101" depart="2020.00" from="450904360#0" to="-35997763#0"/>
    <trip id="102" depart="2040.00" from="209633322#1" to="-37143413#3"/>
    <trip id="103" depart="2060.00" from="160379545" to="-195653648"/>
    <trip id="104" depart="2080.00" from="13797865#1" to="706918119#1"/>
    <trip id="105" depart="2100.00" from="-450904360#0" to="434878392#0"/>
    <trip id="106" depart="2120.00" from="198248722#0" to="195652234#1"/>
    <trip id="107" depart="2140.00" from="643196111#6" to="741581305#1"/>
    <trip id="108" depart="2160.00" from="311394893#7" to="37338735#0"/>
    <trip id="109" depart="2180.00" from="-35997529#5" to="-461925679#0"/>
    <trip id="110" depart="2200.00" from="667439829#3" to="35145152#2"/>
    <trip id="111" depart="2220.00" from="311394892#0" to="37855525#5"/>
    <trip id="112" depart="2240.00" from="-195652240#1" to="35145153"/>
    <trip id="113" depart="2260.00" from="256605509#0" to="455315148#1"/>
    <trip id="114" depart="2280.00" from="-35997529#6" to="643548699"/>
    <trip id="115" depart="2300.00" from="-200207562#1" to="-37120131#0"/>
    <trip id="116" depart="2320.00" from="35145272#0" to="37120131#1"/>
    <trip id="117" depart="2340.00" from="-37855523#5" to="-311394893#5"/>
    <trip id="118" depart="2360.00" from="456394922" to="-37856824"/>
    <trip id="119" depart="2380.00" from="35145153" to="35997529#6"/>
    <trip id="120" depart="2400.00" from="195652232#0" to="35145153"/>
    <trip id="121" depart="2420.00" from="26248564#0" to="643196097"/>
    <trip id="122" depart="2440.00" from="-37143413#0" to="37338734#0"/>
    <trip id="123" depart="2460.00" from="-37855526#0" to="160379547#1"/>
    <trip id="124" depart="2480.00" from="36996354#0" to="-461925686#0"/>
    <trip id="125" depart="2500.00" from="-461925688" to="37855526#0"/>
    <trip id="126" depart="2520.00" from="-200205516#0" to="200205516#2"/>
    <trip id="127" depart="2540.00" from="743532993" to="741581306"/>
    <trip id="128" depart="2560.00" from="-200205516#0" to="-37143413#3"/>
    <trip id="129" depart="2580.00" from="-450904360#0" to="643196095"/>
    <trip id="130" depart="2600.00" from="456394706#0" to="456394706#2"/>
    <trip id="131" depart="2620.00" from="-706918119#4" to="-35997529#4"/>
    <trip id="132" depart="2640.00" from="440389517#6" to="37143413#2"/>
    <trip id="133" depart="2660.00" from="351525659#2" to="706918119#2"/>
    <trip id="134" depart="2680.00" from="36965446#1" to="-160379534#0"/>
    <trip id="135" depart="2700.00" from="434879919#7" to="-461925680"/>
    <trip id="136" depart="2720.00" from="36979228#5" to="643196107"/>
    <trip id="137" depart="2740.00" from="-349643787#2" to="-311394893#1"/>
    <trip id="138" depart="2760.00" from="-311394891" to="311394895#4"/>
    <trip id="139" depart="2780.00" from="-455315145#1" to="351525659#4"/>
    <trip id="140" depart="2800.00" from="37143413#1" to="-37141983"/>
    <trip id="141" depart="2820.00" from="35997529#8" to="-455315145#1"/>
    <trip id="142" depart="2840.00" from="220234010#0" to="468686243#1"/>
    <trip id="143" depart="2860.00" from="448858674#1" to="-252334869"/>
    <trip id="144" depart="2880.00" from="195652232#3" to="-456394702#0"/>
    <trip id="145" depart="2900.00" from="-141476900#0" to="37856823#2"/>
    <trip id="146" depart="2920.00" from="35997762" to="-455315141#1"/>
    <trip id="147" depart="2940.00" from="37855520#0" to="311394895#3"/>
    <trip id="148" depart="2960.00" from="195652232#6" to="-160379534#1"/>
    <trip id="149" depart="2980.00" from="-200205516#2" to="456394921"/>
    <trip id="150" depart="3000.00" from="461925689#3" to="311394893#7"/>
    <trip id="151" depart="3020.00" from="440389517#6" to="35145152#4"/>
    <trip id="152" depart="3040.00" from="-35997529#10" to="-311394895#1"/>
    <trip id="153" depart="3060.00" from="-461925682" to="461925688"/>
    <trip id="154" depart="3080.00" from="434878392#2" to="456394699#1"/>
    <trip id="155" depart="3100.00" from="461925686#2" to="-37143413#1"/>
    <trip id="156" depart="3120.00" from="-37856824" to="-26248564#2"/>
    <trip id="157" depart="3140.00" from="37856823#1" to="456394922"/>
    <trip id="158" depart="3160.00" from="166972992#0" to="35997529#7"/>
    <trip id="159" depart="3180.00" from="-35997529#4" to="63844506#2"/>
    <trip id="160" depart="3200.00" from="456394698" to="704870101#1"/>
    <trip id="161" depart="3220.00" from="434879919#3" to="456394708"/>
    <trip id="162" depart="3240.00" from="-166972992#3" to="37855523#4"/>
    <trip id="163" depart="3260.00" from="-480746900" to="63844506#3"/>
    <trip id="164" depart="3280.00" from="434878392#8" to="456394700"/>
    <trip id="165" depart="3300.00" from="434879919#3" to="-455315148#1"/>
    <trip id="166" depart="3320.00" from="429123181" to="-311394891"/>
    <trip id="167" depart="3340.00" from="456394702#1" to="456394699#0"/>
    <trip id="168" depart="3360.00" from="-37855520#0" to="440389517#1"/>
    <trip id="169" depart="3380.00" from="198248726#3" to="-461925686#3"/>
    <trip id="170" depart="3400.00" from="434878392#1" to="-37855523#2"/>
    <trip id="171" depart="3420.00" from="-166972992#2" to="-37120135#3"/>
    <trip id="172" depart="3440.00" from="-480746899#1" to="456394700"/>
    <trip id="173" depart="3460.00" from="667439829#1" to="-456394702#2"/>
    <trip id="174" depart="3480.00" from="36001071" to="166972992#2"/>
    <trip id="175" depart="3500.00" from="704870101#4" to="311394893#0"/>
    <trip id="176" depart="3520.00" from="643196100" to="-311394893#1"/>
    <trip id="177" depart="3540.00" from="667439829#4" to="-36996745"/>
    <trip id="178" depart="3560.00" from="643548699" to="-455315148#0"/>
    <trip id="179" depart="3580.00" from="-311394892#0" to="195652240#0"/>
    <trip id="180" depart="3600.00" from="37338734#0" to="-478627085#1"/>
    <trip id="181" depart="3620.00" from="35145521#4" to="26248564#0"/>
    <trip id="182" depart="3640.00" from="13798716#0" to="35104970#3"/>
    <trip id="183" depart="3660.00" from="-429123181" to="37194468"/>
    <trip id="184" depart="3680.00" from="-108480588#1" to="536710725"/>
    <trip id="185" depart="3700.00" from="311394889" to="37338735#0"/>
    <trip id="186" depart="3720.00" from="37855523#0" to="36997787"/>
    <trip id="187" depart="3740.00" from="-706918119#0" to="-198248726#4"/>
    <trip id="188" depart="3760.00" from="36979228#6" to="-63844506#2"/>
    <trip id="189" depart="3780.00" from="-461925686#3" to="455315145#0"/>
    <trip id="190" depart="3800.00" from="37143413#3" to="-461925686#0"/>
    <trip id="191" depart="3820.00" from="-461925682" to="195652231#0"/>
    <trip id="192" depart="3840.00" from="160379545" to="-461135463"/>
    <trip id="193" depart="3860.00" from="-311394895#1" to="195652233"/>
    <trip id="194" depart="3880.00" from="643196103#0" to="37120131#3"/>
    <trip id="195" depart="3900.00" from="461925689#2" to="35997529#12"/>
    <trip id="196" depart="3920.00" from="-456394708" to="311394893#8"/>
    <trip id="197" depart="3940.00" from="-108480588#0" to="-456394706#0"/>
    <trip id="198" depart="3960.00" from="195652234#1" to="35145152#3"/>
    <trip id="199" depart="3980.00" from="36979228#0" to="205638142#0"/>
    <trip id="200" depart="4000.00" from="195652240#0" to="-37143413#3"/>
    <trip id="201" depart="4020.00" from="205638142#0" to="461925689#2"/>
    <trip id="202" depart="4040.00" from="434878392#2" to="-36996353#1"/>
    <trip id="203" depart="4060.00" from="-208265320#0" to="27149266"/>
    <trip id="204" depart="4080.00" from="35997529#7" to="-643196095"/>
    <trip id="205" depart="4100.00" from="440117023" to="37855525#7"/>
    <trip id="206" depart="4120.00" from="36996354#1" to="-37855520#0"/>
    <trip id="207" depart="4140.00" from="-37141973#1" to="-166972992#4"/>
    <trip id="208" depart="4160.00" from="-37856053#3" to="209633322#1"/>
    <trip id="209" depart="4180.00" from="450904360#0" to="-200205516#1"/>
    <trip id="210" depart="4200.00" from="195652230" to="35997763#2"/>
    <trip id="211" depart="4220.00" from="-37141968#0" to="37141975"/>
    <trip id="212" depart="4240.00" from="240884741#1" to="-37856823#1"/>
    <trip id="213" depart="4260.00" from="36979228#0" to="-141476900#1"/>
    <trip id="214" depart="4280.00" from="37855525#1" to="37856823#1"/>
    <trip id="215" depart="4300.00" from="-311394890" to="195652234#3"/>
    <trip id="216" depart="4320.00" from="-36996745" to="643196111#9"/>
    <trip id="217" depart="4340.00" from="26248559#3" to="-195652236#0"/>
    <trip id="218" depart="4360.00" from="-37856823#2" to="455315145#0"/>
    <trip id="219" depart="4380.00" from="198248726#1" to="434879919#3-AddedOffRampEdge"/>
    <trip id="220" depart="4400.00" from="36996353#1" to="706918119#2"/>
    <trip id="221" depart="4420.00" from="35145272#0" to="643196111#3"/>
    <trip id="222" depart="4440.00" from="456394923" to="35997529#10"/>
    <trip id="223" depart="4460.00" from="37143413#3" to="26248559#3"/>
    <trip id="224" depart="4480.00" from="440389517#4" to="311394893#8"/>
    <trip id="225" depart="4500.00" from="461925686#1" to="37855525#1"/>
    <trip id="226" depart="4520.00" from="205638142#1" to="-455315141#0"/>
    <trip id="227" depart="4540.00" from="-37856823#1" to="36905352#0"/>
    <trip id="228" depart="4560.00" from="37855528" to="29035151"/>
    <trip id="229" depart="4580.00" from="35997529#12" to="-456394700"/>
    <trip id="230" depart="4600.00" from="-200205516#3" to="-456394705#2"/>
    <trip id="231" depart="4620.00" from="-455315145#0" to="-480746899#3"/>
    <trip id="232" depart="4640.00" from="311394890" to="-35078501#1"/>
    <trip id="233" depart="4660.00" from="-37855523#3" to="37141968#2"/>
    <trip id="234" depart="4680.00" from="37141968#2" to="-198248722#0"/>
    <trip id="235" depart="4700.00" from="166972992#1" to="311394893#5"/>
    <trip id="236" depart="4720.00" from="195652230" to="-37143412#1"/>
    <trip id="237" depart="4740.00" from="195652232#0" to="468686243#0"/>
    <trip id="238" depart="4760.00" from="35104970#1" to="37141973#1"/>
    <trip id="239" depart="4780.00" from="455315148#0" to="37856053#1"/>
    <trip id="240" depart="4800.00" from="13797903#0" to="-141476900#1"/>
    <trip id="241" depart="4820.00" from="-667439829#3" to="37855526#1"/>
    <trip id="242" depart="4840.00" from="455315145#0" to="643196111#6"/>
    <trip id="243" depart="4860.00" from="195652232#0" to="37855525#5"/>
    <trip id="244" depart="4880.00" from="311394892#2" to="351525659#3"/>
    <trip id="245" depart="4900.00" from="-37338735#1" to="-37338733"/>
    <trip id="246" depart="4920.00" from="195652235" to="-195652231#0"/>
    <trip id="247" depart="4940.00" from="-480746904#1" to="37120131#4"/>
    <trip id="248" depart="4960.00" from="160379547#1" to="-35997529#9"/>
    <trip id="249" depart="4980.00" from="200205516#3" to="-311394895#1"/>
    <trip id="250" depart="5000.00" from="35997529#0" to="-166972992#6"/>
    <trip id="251" depart="5020.00" from="160379534#1" to="349643787#3"/>
    <trip id="252" depart="5040.00" from="-166972992#6" to="36965446#1"/>
    <trip id="253" depart="5060.00" from="-35078500" to="200205516#4"/>
    <trip id="254" depart="5080.00" from="-195652235" to="141476900#1"/>
    <trip id="255" depart="5100.00" from="-37194468" to="-51228960#3"/>
    <trip id="256" depart="5120.00" from="37855526#0" to="141476900#1"/>
    <trip id="257" depart="5140.00" from="37855525#1" to="448568801#1"/>
    <trip id="258" depart="5160.00" from="-429123180#0" to="-205638878#0"/>
    <trip id="259" depart="5180.00" from="-160379547#1" to="311394893#3"/>
    <trip id="260" depart="5200.00" from="743539877" to="-704870100#1"/>
    <trip id="261" depart="5220.00" from="36905352#0" to="4306658"/>
    <trip id="262" depart="5240.00" from="36965446#0" to="37855526#1"/>
    <trip id="263" depart="5260.00" from="643196111#12" to="-37141968#2"/>
    <trip id="264" depart="5280.00" from="-166972992#0" to="-35997529#11"/>
    <trip id="265" depart="5300.00" from="-311394895#1" to="36996747#2"/>
    <trip id="266" depart="5320.00" from="311394895#4" to="-37202416#1"/>
    <trip id="267" depart="5340.00" from="37120135#4" to="37856053#2"/>
    <trip id="268" depart="5360.00" from="-36996353#1" to="351525662"/>
    <trip id="269" depart="5380.00" from="37855523#5" to="-311394893#1"/>
    <trip id="270" depart="5400.00" from="440117023" to="667439829#2"/>
    <trip id="271" depart="5420.00" from="-311394891" to="-166972992#6"/>
    <trip id="272" depart="5440.00" from="-461925686#1" to="37120131#3"/>
    <trip id="273" depart="5460.00" from="643196111#7" to="166972992#0"/>
    <trip id="274" depart="5480.00" from="37143412#1" to="-200205516#3"/>
    <trip id="275" depart="5500.00" from="37120131#3" to="35997763#0"/>
    <trip id="276" depart="5520.00" from="-26248564#2" to="37856823#2"/>
    <trip id="277" depart="5540.00" from="455315141#0" to="351525659#1"/>
    <trip id="278" depart="5560.00" from="-311394893#6" to="706918119#0"/>
    <trip id="279" depart="5580.00" from="37856825" to="-680867340#0"/>
    <trip id="280" depart="5600.00" from="195652233" to="13797903#1-AddedOnRampEdge"/>
    <trip id="281" depart="5620.00" from="256605510#1" to="-667439829#2"/>
    <trip id="282" depart="5640.00" from="450904360#0" to="440389517#5"/>
    <trip id="283" depart="5660.00" from="-311394890" to="643548699"/>
    <trip id="284" depart="5680.00" from="35997529#9" to="444069162"/>
    <trip id="285" depart="5700.00" from="37141973#0" to="195652240#1"/>
    <trip id="286" depart="5720.00" from="37338735#1" to="667439829#3"/>
    <trip id="287" depart="5740.00" from="-455315141#1" to="434879919#7"/>
    <trip id="288" depart="5760.00" from="311394889" to="240884741#0"/>
    <trip id="289" depart="5780.00" from="195652235" to="37855522"/>
    <trip id="290" depart="5800.00" from="-455315141#0" to="455315148#0"/>
    <trip id="291" depart="5820.00" from="440389517#4" to="-208265320#0"/>
    <trip id="292" depart="5840.00" from="456394706#1" to="-37856823#0"/>
    <trip id="293" depart="5860.00" from="200205516#1" to="35997529#0"/>
    <trip id="294" depart="5880.00" from="13797865#1" to="-195652231#0"/>
    <trip id="295" depart="5900.00" from="455315141#0" to="-36996747#0"/>
    <trip id="296" depart="5920.00" from="-37202416#0" to="434879919#11"/>
    <trip id="297" depart="5940.00" from="-549753672" to="456394707"/>
    <trip id="298" depart="5960.00" from="37141967#0" to="-456394702#0"/>
    <trip id="299" depart="5980.00" from="-160379534#1" to="643196111#12-AddedOnRampEdge"/>
    <trip id="300" depart="6000.00" from="-209633322#0" to="37338735#1"/>
    <trip id="301" depart="6020.00" from="220234010#0" to="37855528"/>
    <trip id="302" depart="6040.00" from="37120131#3" to="36979228#1"/>
    <trip id="303" depart="6060.00" from="220234010#1" to="434878392#8"/>
    <trip id="304" depart="6080.00" from="-256605509#1" to="-37352974#0"/>
    <trip id="305" depart="6100.00" from="37120133#0" to="-461925689#0"/>
    <trip id="306" depart="6120.00" from="35078501#0" to="205638880#2"/>
    <trip id="307" depart="6140.00" from="286085490#1" to="195652234#3"/>
    <trip id="308" depart="6160.00" from="37855523#3" to="-63844506#2"/>
    <trip id="309" depart="6180.00" from="37141968#0" to="-456394698"/>
    <trip id="310" depart="6200.00" from="-37856825" to="-311394893#6"/>
    <trip id="311" depart="6220.00" from="-37120135#4" to="-311394893#5"/>
    <trip id="312" depart="6240.00" from="308678923" to="37855531#2"/>
    <trip id="313" depart="6260.00" from="-37120131#3" to="-37202416#0"/>
    <trip id="314" depart="6280.00" from="206868043" to="37855519#1"/>
    <trip id="315" depart="6300.00" from="704870101#1" to="308678923"/>
    <trip id="316" depart="6320.00" from="-456394700" to="-256605511#1"/>
    <trip id="317" depart="6340.00" from="-37141968#0" to="-37855523#2"/>
    <trip id="318" depart="6360.00" from="-36996747#1" to="-160379545"/>
    <trip id="319" depart="6380.00" from="308678904" to="-456394700"/>
    <trip id="320" depart="6400.00" from="680867340#0" to="311394895#4"/>
    <trip id="321" depart="6420.00" from="37120135#3" to="-311394895#0"/>
    <trip id="322" depart="6440.00" from="456394700" to="256605509#0"/>
    <trip id="323" depart="6460.00" from="456394702#2" to="35104970#2"/>
    <trip id="324" depart="6480.00" from="200205516#4" to="195652243#2"/>
    <trip id="325" depart="6500.00" from="-37120131#1" to="-195652236#1"/>
    <trip id="326" depart="6520.00" from="643196103#0" to="220234010#0"/>
    <trip id="327" depart="6540.00" from="440117214" to="166972992#3"/>
    <trip id="328" depart="6560.00" from="-200205516#1" to="35997763#1"/>
    <trip id="329" depart="6580.00" from="-195652236#1" to="-35145521#3"/>
    <trip id="330" depart="6600.00" from="311394895#3" to="-461925686#2"/>
    <trip id="331" depart="6620.00" from="741581305#0" to="-311394893#4"/>
    <trip id="332" depart="6640.00" from="37855527#1" to="351525660#0"/>
    <trip id="333" depart="6660.00" from="4306660" to="-37855520#0"/>
    <trip id="334" depart="6680.00" from="26248564#0" to="198248726#2"/>
    <trip id="335" depart="6700.00" from="195652240#0" to="456394699#1"/>
    <trip id="336" depart="6720.00" from="706918119#4" to="-461925686#3"/>
    <trip id="337" depart="6740.00" from="351525677" to="351525669"/>
    <trip id="338" depart="6760.00" from="37855519#1" to="643196111#12-AddedOnRampEdge"/>
    <trip id="339" depart="6780.00" from="-37143413#2" to="-37143413#2"/>
    <trip id="340" depart="6800.00" from="36979228#3" to="-35997529#4"/>
    <trip id="341" depart="6820.00" from="-36996354#1" to="-200205516#2"/>
    <trip id="342" depart="6840.00" from="-108480588#1" to="198248726#2"/>
    <trip id="343" depart="6860.00" from="35145153" to="-456394707"/>
    <trip id="344" depart="6880.00" from="-37855523#3" to="37143414"/>
    <trip id="345" depart="6900.00" from="37141968#0" to="198248726#4"/>
    <trip id="346" depart="6920.00" from="37120131#0" to="51228960#3"/>
    <trip id="347" depart="6940.00" from="429123181" to="35997762"/>
    <trip id="348" depart="6960.00" from="36979228#4" to="643196095"/>
    <trip id="349" depart="6980.00" from="195652232#4" to="311394893#6"/>
    <trip id="350" depart="7000.00" from="367477477" to="478627085#0"/>
    <trip id="351" depart="7020.00" from="440389517#1" to="-200205516#0"/>
    <trip id="352" depart="7040.00" from="-35997763#2" to="-461925689#1"/>
    <trip id="353" depart="7060.00" from="37855523#5" to="349643891"/>
    <trip id="354" depart="7080.00" from="-456394704" to="-311394893#8"/>
    <trip id="355" depart="7100.00" from="37120131#1" to="37143412#0"/>
    <trip id="356" depart="7120.00" from="643196107" to="26248559#10"/>
    <trip id="357" depart="7140.00" from="240884741#0" to="-200207562#1"/>
    <trip id="358" depart="7160.00" from="-195652232#4" to="195652236#1"/>
    <trip id="359" depart="7180.00" from="-461925689#3" to="-429123181"/>
    <trip id="360" depart="7200.00" from="-254724123" to="667439829#0"/>
    <trip id="361" depart="7220.00" from="440389519" to="35104970#2"/>
    <trip id="362" depart="7240.00" from="643196111#12-AddedOnRampEdge" to="743539877"/>
    <trip id="363" depart="7260.00" from="36996354#0" to="-455315148#2"/>
    <trip id="364" depart="7280.00" from="-195652232#4" to="37855527#1"/>
    <trip id="365" depart="7300.00" from="200207562#0" to="36979228#5"/>
    <trip id="366" depart="7320.00" from="480746899#1" to="-36996747#0"/>
    <trip id="367" depart="7340.00" from="35104970#2" to="367477474"/>
    <trip id="368" depart="7360.00" from="236978557" to="-236978557"/>
    <trip id="369" depart="7380.00" from="-667439829#0" to="-63844520"/>
    <trip id="370" depart="7400.00" from="36996353#4" to="456118771#2"/>
    <trip id="371" depart="7420.00" from="-480746899#2" to="37141968#2"/>
    <trip id="372" depart="7440.00" from="-456394702#2" to="643196111#11"/>
    <trip id="373" depart="7460.00" from="434879919#4" to="311394895#1"/>
    <trip id="374" depart="7480.00" from="197100021#2" to="-478627085#1"/>
    <trip id="375" depart="7500.00" from="-478627085#0" to="680867338"/>
    <trip id="376" depart="7520.00" from="160379547#1" to="27103806#0"/>
    <trip id="377" depart="7540.00" from="706918119#3" to="36996353#2"/>
    <trip id="378" depart="7560.00" from="311394892#0" to="195652232#1"/>
    <trip id="379" depart="7580.00" from="-37120131#4" to="108480588#1"/>
    <trip id="380" depart="7600.00" from="37855525#5" to="35997762"/>
    <trip id="381" depart="7620.00" from="37855526#0" to="-37141983"/>
    <trip id="382" depart="7640.00" from="311394893#1" to="536710726"/>
    <trip id="383" depart="7660.00" from="195652236#0" to="37141982"/>
    <trip id="384" depart="7680.00" from="-311394893#6" to="680867340#1"/>
    <trip id="385" depart="7700.00" from="351525659#0" to="-37856053#1"/>
    <trip id="386" depart="7720.00" from="-35997529#7" to="311394895#1"/>
    <trip id="387" depart="7740.00" from="311394893#4" to="-252334869"/>
    <trip id="388" depart="7760.00" from="706918119#5" to="480746899#1"/>
    <trip id="389" depart="7780.00" from="198248726#4" to="-311394893#3"/>
    <trip id="390" depart="7800.00" from="440389517#5" to="26248559#0"/>
    <trip id="391" depart="7820.00" from="37143413#1" to="26248559#5"/>
    <trip id="392" depart="7840.00" from="-455315148#0" to="448858672#0"/>
    <trip id="393" depart="7860.00" from="704870101#3" to="-37856823#0"/>
    <trip id="394" depart="7880.00" from="311394893#4" to="160379534#1"/>
    <trip id="395" depart="7900.00" from="480746900" to="26248559#5"/>
    <trip id="396" depart="7920.00" from="456394705#2" to="456394700"/>
    <trip id="397" depart="7940.00" from="-455315148#1" to="434878392#5-AddedOffRampEdge"/>
    <trip id="398" depart="7960.00" from="195652230" to="643196097"/>
    <trip id="399" depart="7980.00" from="256605511#1" to="440389517#3"/>
    <trip id="400" depart="8000.00" from="-456394700" to="-461925680"/>
    <trip id="401" depart="8020.00" from="35145152#0" to="743539877"/>
    <trip id="402" depart="8040.00" from="220234010#1" to="-35145521#2"/>
    <trip id="403" depart="8060.00" from="311394889" to="-680867338"/>
    <trip id="404" depart="8080.00" from="311394893#4" to="311394893#5"/>
    <trip id="405" depart="8100.00" from="198248722#0" to="-480746900"/>