<nodes xmlns:xsi="http://www.w3.org/2001/XMLSchema-instance" version="1.6" xsi:noNamespaceSchemaLocation="http://sumo.dlr.de/xsd/nodes_file.xsd">
    <location netOffset="-531916.14,-4557908.01" convBoundary="0.00,0.00,2270.73,1746.79" origBoundary="-8.619497,41.171812,-8.592427,41.187536" projParameter="+proj=utm +zone=29 +ellps=WGS84 +datum=WGS84 +units=m +no_defs" />

    <node id="112613589" x="677.02" y="1320.13" type="priority" />
    <node id="112613596" x="1013.60" y="1415.69" type="priority" />
    <node id="112613608" x="2251.77" y="976.23" type="dead_end" />
    <node id="112651991" x="2255.48" y="992.80" type="dead_end" />
    <node id="112651995" x="1512.22" y="1292.25" type="priority" />
    <node id="112652014" x="560.13" y="1282.11" type="priority" />
    <node id="112652019" x="142.67" y="1205.77" type="dead_end" />
    <node id="112652932" x="2179.79" y="1015.66" type="priority" />
    <node id="1221776530" x="1716.71" y="1323.34" type="priority" />
    <node id="1223751746" x="1385.67" y="498.56" type="priority" />
    <node id="1223751757" x="1384.21" y="529.03" type="priority" />
    <node id="128560419" x="451.31" y="639.17" type="traffic_light" tl="GS_128560419" />
    <node id="128560421" x="452.22" y="500.33" type="priority" />
    <node id="128560423" x="470.38" y="429.42" type="priority" />
    <node id="128560426" x="487.42" y="354.37" type="priority" />
    <node id="128560429" x="521.89" y="240.37" type="dead_end" />
    <node id="128569678" x="205.33" y="237.88" type="dead_end" />
    <node id="128569766" x="207.59" y="224.42" type="dead_end" />
    <node id="128571476" x="572.82" y="326.75" type="priority" />
    <node id="128571479" x="725.25" y="294.79" type="priority" />
    <node id="128573633" x="446.91" y="309.17" type="priority" />
    <node id="128575853" x="461.13" y="256.90" type="dead_end" />
    <node id="128577510" x="566.20" y="261.96" type="dead_end" />
    <node id="128617100" x="519.62" y="264.17" type="dead_end" />
    <node id="13797865#0-AddedOffRampNode" x="671.71" y="311.94" type="priority" />
    <node id="13797903#1-AddedOnRampNode" x="350.04" y="284.31" type="priority" />
    <node id="1548554599" x="1133.58" y="453.09" type="priority" />
    <node id="1548554600" x="1113.49" y="469.44" type="priority" />
    <node id="1548554601" x="1027.44" y="472.83" type="priority" />
    <node id="1548554610" x="962.05" y="571.78" type="priority" />
    <node id="1724272845" x="1496.77" y="1204.50" type="priority" />
    <node id="1724272859" x="1537.17" y="1136.61" type="priority" />
    <node id="1724272861" x="1519.83" y="1104.47" type="priority" />
    <node id="1724272884" x="1475.86" y="1135.44" type="priority" />
    <node id="1724272908" x="1403.78" y="1048.81" type="priority" />
    <node id="1724272910" x="1474.09" y="1105.42" type="priority" />
    <node id="1965559385" x="2037.04" y="501.54" type="dead_end" />
    <node id="1965559396" x="2107.18" y="663.95" type="dead_end" />
    <node id="2060757023" x="708.82" y="1054.87" type="priority" />
    <node id="2060757030" x="846.46" y="1018.81" type="priority" />
    <node id="2060757035" x="709.23" y="1024.65" type="priority" />
    <node id="2060757041" x="823.28" y="1030.59" type="priority" />
    <node id="2060757045" x="796.23" y="1054.13" type="priority" />
    <node id="2060757051" x="679.72" y="983.51" type="priority" />
    <node id="2060757055" x="697.43" y="970.82" type="priority" />
    <node id="2060757059" x="714.85" y="950.46" type="priority" />
    <node id="2060757061" x="794.77" y="997.22" type="priority" />
    <node id="2060757063" x="813.38" y="855.22" type="priority" />
    <node id="2060757069" x="787.33" y="989.06" type="priority" />
    <node id="2060757071" x="805.27" y="1008.35" type="priority" />
    <node id="2060757073" x="736.54" y="934.43" type="priority" />
    <node id="2060757081" x="779.17" y="878.39" type="priority" />
    <node id="2060757085" x="779.24" y="1054.27" type="priority" />
    <node id="2060757087" x="736.47" y="1054.64" type="priority" />
    <node id="2060757099" x="822.30" y="1053.27" type="priority" />
    <node id="2060757104" x="669.33" y="1024.28" type="priority" />
    <node id="2060766657" x="618.18" y="979.69" type="priority" />
    <node id="2070955761" x="1258.68" y="349.40" type="dead_end" />
    <node id="2070955763" x="1257.32" y="390.15" type="dead_end" />
    <node id="2070956319" x="1237.24" y="366.07" type="dead_end" />
    <node id="2072674362" x="1293.65" y="296.94" type="right_before_left" />
    <node id="2072674363" x="1241.44" y="297.88" type="priority" />
    <node id="2072674366" x="1292.97" y="324.78" type="right_before_left" />
    <node id="2072674368" x="1240.45" y="338.55" type="priority" />
    <node id="2084090865" x="1199.97" y="335.61" type="priority" />
    <node id="2084090868" x="1250.38" y="482.11" type="priority" />
    <node id="2084090870" x="1251.41" y="460.38" type="priority" />
    <node id="2084091565" x="993.65" y="286.97" type="priority" />
    <node id="2084091568" x="938.69" y="302.85" type="priority" />
    <node id="2084091577" x="981.69" y="267.26" type="dead_end" />
    <node id="2102009665" x="535.79" y="1056.35" type="priority" />
    <node id="2102009670" x="567.83" y="824.32" type="priority" />
    <node id="2102030065" x="414.86" y="1429.84" type="priority" />
    <node id="2102030070" x="770.94" y="1485.82" type="priority" />
    <node id="2156098689" x="1256.61" y="911.63" type="priority" />
    <node id="2156098695" x="1615.38" y="792.59" type="priority" />
    <node id="2156098702" x="1233.89" y="1026.80" type="priority" />
    <node id="2156098707" x="1347.64" y="904.59" type="priority" />
    <node id="2156098708" x="1267.96" y="907.42" type="priority" />
    <node id="2156098713" x="1342.16" y="888.62" type="priority" />
    <node id="2156098716" x="1215.01" y="984.76" type="dead_end" />
    <node id="2156098729" x="1611.16" y="780.32" type="priority" />
    <node id="2156098745" x="1344.86" y="926.19" type="dead_end" />
    <node id="2156104171" x="1319.11" y="1142.14" type="priority" />
    <node id="2156104173" x="1277.57" y="1149.89" type="priority" />
    <node id="2156104174" x="1296.19" y="1142.68" type="priority" />
    <node id="2156104176" x="1313.14" y="1125.95" type="priority" />
    <node id="2168968239" x="1503.07" y="1244.36" type="dead_end">
        <param key="buffer_stop" value="true" />
    </node>
    <node id="2169148352" x="879.34" y="1268.76" type="priority">
        <param key="buffer_stop" value="true" />
    </node>
    <node id="2185756687" x="1947.23" y="749.15" type="right_before_left" />
    <node id="2185762064" x="2128.29" y="808.45" type="priority" />
    <node id="2185762067" x="1954.00" y="821.09" type="right_before_left" />
    <node id="2185772969" x="1801.04" y="670.56" type="dead_end" />
    <node id="2185772977" x="2037.30" y="586.09" type="dead_end" />
    <node id="2185772984" x="2119.20" y="826.87" type="priority" />
    <node id="2185772991" x="1967.15" y="595.84" type="dead_end" />
    <node id="2185794877" x="1800.85" y="695.96" type="dead_end" />
    <node id="2185821369" x="1937.71" y="842.27" type="dead_end" />
    <node id="2449318866" x="764.27" y="432.13" type="priority" />
    <node id="2460915651" x="1654.80" y="414.00" type="right_before_left" />
    <node id="2460915655" x="1650.34" y="416.56" type="right_before_left" />
    <node id="2460915663" x="1827.73" y="288.33" type="priority" />
    <node id="2460915668" x="1854.77" y="402.48" type="priority" />
    <node id="2460915670" x="1830.45" y="412.15" type="priority" />
    <node id="2460915671" x="1843.64" y="298.80" type="right_before_left" />
    <node id="2460915672" x="1862.22" y="273.48" type="priority" />
    <node id="2485736713" x="590.18" y="568.44" type="priority" />
    <node id="2489687347" x="1051.93" y="1393.44" type="priority" />
    <node id="2489687351" x="1017.88" y="1380.02" type="priority" />
    <node id="2489687353" x="1032.16" y="1381.32" type="right_before_left" />
    <node id="2489687358" x="886.97" y="1327.68" type="priority" />
    <node id="2489687369" x="928.62" y="1395.01" type="dead_end" />
    <node id="2489687370" x="966.89" y="1396.42" type="dead_end" />
    <node id="2490198505" x="770.03" y="271.24" type="dead_end" />
    <node id="2583930788" x="520.22" y="1453.62" type="priority" />
    <node id="2583946064" x="351.22" y="1377.18" type="dead_end" />
    <node id="26015916" x="688.66" y="273.67" type="dead_end" />
    <node id="2605258257" x="591.05" y="1220.19" type="priority">
        <param key="buffer_stop" value="true" />
    </node>
    <node id="2605258290" x="586.59" y="1133.74" type="priority" />
    <node id="26057801" x="2163.32" y="1143.02" type="priority" />
    <node id="26057813" x="2092.65" y="1079.36" type="priority" />
    <node id="26122720" x="2219.84" y="909.12" type="dead_end" />
    <node id="26122724" x="2202.94" y="1231.33" type="dead_end" />
    <node id="26122781" x="2151.84" y="1361.18" type="priority" />
    <node id="26122782" x="2185.94" y="1222.14" type="priority" />
    <node id="26122784" x="2205.19" y="996.04" type="dead_end" />
    <node id="26122786" x="2199.32" y="868.36" type="dead_end" />
    <node id="280199200" x="1342.17" y="168.07" type="dead_end" />
    <node id="2846609729" x="944.46" y="572.13" type="priority" />
    <node id="287458435" x="1218.48" y="1358.64" type="priority" />
    <node id="287458447" x="765.12" y="231.52" type="dead_end" />
    <node id="287458452" x="924.40" y="389.03" type="priority" />
    <node id="3139458018" x="1073.07" y="1419.88" type="priority" />
    <node id="3139458233" x="1222.44" y="1373.17" type="priority" />
    <node id="3139458237" x="1027.27" y="1428.95" type="priority" />
    <node id="3139458282" x="1304.12" y="1352.07" type="priority" />
    <node id="3170300770" x="814.68" y="817.58" type="priority" />
    <node id="3170300773" x="706.07" y="830.37" type="priority" />
    <node id="3170300775" x="780.03" y="842.05" type="priority" />
    <node id="3170300779" x="796.22" y="866.56" type="priority" />
    <node id="3170300783" x="467.81" y="864.47" type="priority" />
    <node id="3170300785" x="712.74" y="869.98" type="priority" />
    <node id="3170300788" x="774.55" y="976.35" type="priority" />
    <node id="3170300793" x="845.90" y="1031.12" type="priority" />
    <node id="3250683197" x="0.00" y="342.92" type="priority" />
    <node id="3554953597" x="1337.98" y="167.24" type="dead_end" />
    <node id="3554953660" x="1440.54" y="321.24" type="priority" />
    <node id="3554953661" x="1258.54" y="351.34" type="dead_end" />
    <node id="3554953666" x="1194.29" y="387.04" type="priority" />
    <node id="3554953676" x="1713.77" y="721.46" type="priority" />
    <node id="3554953679" x="1702.67" y="744.14" type="priority" />
    <node id="3554953681" x="1725.78" y="753.71" type="priority" />
    <node id="3554953692" x="1313.03" y="1216.36" type="priority" />
    <node id="3554953694" x="1318.26" y="1240.15" type="priority" />
    <node id="3554953695" x="1503.96" y="1247.22" type="dead_end">
        <param key="buffer_stop" value="true" />
    </node>
    <node id="3573222095" x="1798.52" y="755.31" type="dead_end" />
    <node id="3573222097" x="1840.42" y="758.48" type="priority" />
    <node id="3573222098" x="1613.15" y="786.13" type="priority" />
    <node id="3573222104" x="1742.10" y="858.51" type="priority" />
    <node id="3573222107" x="1768.86" y="875.84" type="priority" />
    <node id="3573222108" x="1681.19" y="879.42" type="right_before_left" />
    <node id="3573222118" x="1272.41" y="908.53" type="priority" />
    <node id="3573222126" x="1759.17" y="948.76" type="priority" />
    <node id="3573222127" x="1709.08" y="958.35" type="right_before_left" />
    <node id="3573222128" x="1696.56" y="962.79" type="right_before_left" />
    <node id="3573222130" x="1709.73" y="999.50" type="right_before_left" />
    <node id="3573222138" x="1666.34" y="1050.00" type="right_before_left" />
    <node id="3573222139" x="1617.83" y="1057.65" type="priority" />
    <node id="3573222140" x="1637.34" y="1059.90" type="right_before_left" />
    <node id="3573222145" x="1739.61" y="1064.25" type="right_before_left" />
    <node id="3573222152" x="1593.57" y="1071.50" type="right_before_left" />
    <node id="3573222153" x="1597.61" y="1071.62" type="priority" />
    <node id="3573222156" x="1613.22" y="1078.26" type="priority" />
    <node id="3573222157" x="1676.53" y="1079.95" type="right_before_left" />
    <node id="3573222163" x="1654.21" y="1086.60" type="right_before_left" />
    <node id="3573222165" x="1551.99" y="1087.95" type="right_before_left" />
    <node id="3573222168" x="1769.93" y="1092.33" type="priority" />
    <node id="3573222181" x="1603.65" y="1105.33" type="priority" />
    <node id="3573222195" x="1598.36" y="1129.86" type="right_before_left" />
    <node id="3573222198" x="1698.81" y="1145.43" type="right_before_left" />
    <node id="3573222199" x="90.51" y="1142.83" type="dead_end" />
    <node id="3573222200" x="1553.96" y="1150.74" type="right_before_left" />
    <node id="3573222201" x="1702.02" y="1154.86" type="right_before_left" />
    <node id="3573222205" x="1602.43" y="1162.74" type="right_before_left" />
    <node id="3573222207" x="1634.92" y="1172.04" type="right_before_left" />
    <node id="3573222209" x="1578.08" y="1179.22" type="priority" />
    <node id="3573222212" x="1713.18" y="1187.67" type="priority" />
    <node id="3573222216" x="1553.36" y="1190.34" type="priority" />
    <node id="3573222217" x="1570.68" y="1192.95" type="right_before_left" />
    <node id="3573222221" x="1498.35" y="1198.30" type="priority" />
    <node id="3573222222" x="1556.78" y="1198.65" type="right_before_left" />
    <node id="3573222223" x="1512.14" y="1198.67" type="priority" />
    <node id="3573222224" x="1479.33" y="1199.88" type="priority" />
    <node id="3573222230" x="1510.55" y="1204.86" type="priority" />
    <node id="3573222232" x="1503.39" y="1207.47" type="priority" />
    <node id="3573222234" x="1605.18" y="1210.21" type="priority" />
    <node id="3573222237" x="1522.53" y="1212.66" type="priority">
        <param key="buffer_stop" value="true" />
    </node>
    <node id="3573222239" x="1610.14" y="1224.26" type="priority" />
    <node id="3573222240" x="1511.42" y="1230.09" type="priority" />
    <node id="3573222241" x="1589.59" y="1231.55" type="priority" />
    <node id="3573222249" x="444.50" y="1245.17" type="priority" />
    <node id="3573222253" x="1540.02" y="1257.54" type="dead_end" />
    <node id="3573222256" x="1490.49" y="1273.93" type="dead_end" />
    <node id="3573222260" x="1422.88" y="1286.91" type="priority" />
    <node id="3573222266" x="1436.23" y="1298.33" type="priority" />
    <node id="3713816545" x="2125.24" y="284.21" type="dead_end" />
    <node id="3713816546" x="2104.19" y="273.91" type="dead_end" />
    <node id="3713963940" x="2206.07" y="1062.36" type="dead_end" />
    <node id="3713963962" x="2168.66" y="1370.01" type="priority" />
    <node id="3713963964" x="2110.16" y="1526.39" type="dead_end" />
    <node id="3713963976" x="2074.75" y="1746.79" type="dead_end" />
    <node id="3941735761" x="1327.44" y="371.92" type="dead_end" />
    <node id="411504977" x="1656.21" y="317.67" type="traffic_light" tl="411504977" />
    <node id="411504984" x="1532.45" y="217.81" type="priority" />
    <node id="411504995" x="1800.79" y="0.00" type="priority" />
    <node id="411506246" x="1126.04" y="279.03" type="priority" />
    <node id="411835382" x="1845.35" y="51.02" type="priority" />
    <node id="412246600" x="1103.20" y="744.83" type="priority" />
    <node id="412246602" x="1305.97" y="505.49" type="priority" />
    <node id="412246608" x="1110.54" y="722.30" type="priority" />
    <node id="412248011" x="1571.06" y="455.67" type="priority" />
    <node id="412248019" x="1618.49" y="442.13" type="priority" />
    <node id="412249442" x="1320.59" y="207.74" type="priority" />
    <node id="412249443" x="1315.85" y="296.54" type="priority" />
    <node id="412249444" x="1313.33" y="349.81" type="priority" />
    <node id="412249445" x="1311.82" y="380.97" type="priority" />
    <node id="412249450" x="1621.34" y="398.44" type="priority" />
    <node id="4161712077" x="1888.75" y="430.18" type="priority" />
    <node id="4202779469" x="854.66" y="769.60" type="priority" />
    <node id="4202779471" x="901.78" y="766.23" type="right_before_left" />
    <node id="4203872921" x="940.49" y="685.15" type="right_before_left" />
    <node id="4203872926" x="1005.67" y="646.69" type="right_before_left" />
    <node id="420774512" x="844.85" y="1054.16" type="priority" />
    <node id="420776894" x="1872.36" y="1165.25" type="priority" />
    <node id="420776909" x="1867.33" y="1151.41" type="priority" />
    <node id="420776961" x="2071.34" y="929.46" type="priority" />
    <node id="420807840" x="1863.30" y="1136.30" type="priority" />
    <node id="4210849139" x="1080.74" y="801.27" type="dead_end" />
    <node id="4210849145" x="1115.30" y="776.06" type="dead_end" />
    <node id="4210849153" x="1092.70" y="792.61" type="dead_end" />
    <node id="4210849156" x="1105.06" y="794.70" type="priority" />
    <node id="4210849169" x="919.06" y="805.26" type="dead_end" />
    <node id="4210849172" x="1066.94" y="811.25" type="dead_end" />
    <node id="4210849173" x="1092.31" y="813.29" type="dead_end" />
    <node id="4210849175" x="1071.49" y="817.46" type="dead_end" />
    <node id="4210849177" x="1051.49" y="822.43" type="dead_end" />
    <node id="4210849178" x="1056.34" y="828.72" type="dead_end" />
    <node id="4210849180" x="1027.97" y="831.55" type="priority" />
    <node id="4210849181" x="916.22" y="838.03" type="dead_end" />
    <node id="4282469015" x="2066.55" y="429.59" type="priority" />
    <node id="4282469037" x="2012.58" y="461.68" type="priority" />
    <node id="4282469042" x="1934.99" y="475.07" type="priority" />
    <node id="4282469050" x="2150.85" y="614.59" type="priority" />
    <node id="4282469051" x="2132.05" y="616.91" type="priority" />
    <node id="4282469053" x="2141.18" y="733.14" type="right_before_left" />
    <node id="4282469056" x="2164.20" y="800.12" type="priority" />
    <node id="4282469057" x="2146.36" y="803.16" type="priority" />
    <node id="429833960" x="1487.62" y="1491.95" type="priority" />
    <node id="430267067" x="1330.68" y="1553.31" type="dead_end" />
    <node id="430267079" x="1538.02" y="1284.27" type="priority" />
    <node id="430267081" x="1542.04" y="1439.12" type="priority" />
    <node id="430267083" x="1410.90" y="1426.56" type="priority" />
    <node id="430273261" x="1732.33" y="1364.31" type="priority" />
    <node id="430284833" x="505.57" y="1328.68" type="priority" />
    <node id="430284836" x="639.76" y="1324.05" type="priority" />
    <node id="430284842" x="438.30" y="1509.73" type="priority" />
    <node id="430284846" x="457.61" y="1383.16" type="priority" />
    <node id="431615494" x="1545.43" y="1356.39" type="priority" />
    <node id="431647245" x="493.41" y="1186.47" type="priority" />
    <node id="431925046" x="1454.37" y="1472.84" type="priority" />
    <node id="431925048" x="1686.33" y="1230.85" type="priority" />
    <node id="431947934" x="2089.30" y="1475.34" type="priority" />
    <node id="432578781" x="1667.89" y="603.58" type="priority" />
    <node id="432578817" x="1721.32" y="328.52" type="priority" />
    <node id="432578831" x="2122.40" y="402.61" type="priority" />
    <node id="432578854" x="2270.73" y="321.81" type="priority" />
    <node id="432578859" x="2263.91" y="277.06" type="priority" />
    <node id="432597947" x="862.31" y="607.11" type="priority" />
    <node id="432597949" x="638.86" y="533.99" type="priority" />
    <node id="432597951" x="868.19" y="393.38" type="priority" />
    <node id="4327945216" x="1564.07" y="1240.38" type="priority" />
    <node id="432862420" x="1848.95" y="1464.46" type="priority" />
    <node id="433073103" x="1887.81" y="1405.02" type="priority" />
    <node id="433073106" x="1937.83" y="1440.91" type="right_before_left" />
    <node id="4344136170" x="1819.20" y="733.42" type="dead_end" />
    <node id="434878392#5-AddedOffRampNode" x="913.83" y="1417.58" type="priority" />
    <node id="434879919#3-AddedOffRampNode" x="1169.51" y="1393.46" type="priority" />
    <node id="434879919#5-AddedOnRampNode" x="927.63" y="1431.61" type="priority" />
    <node id="435240917" x="2112.26" y="581.20" type="priority" />
    <node id="435240919" x="822.31" y="319.77" type="priority" />
    <node id="435240927" x="2202.21" y="527.34" type="priority" />
    <node id="435240932" x="2185.54" y="402.34" type="priority" />
    <node id="435240959" x="2113.35" y="598.58" type="priority" />
    <node id="435240964" x="527.85" y="515.25" type="priority" />
    <node id="435240969" x="649.75" y="337.15" type="priority" />
    <node id="435240970" x="651.73" y="365.94" type="priority" />
    <node id="435240972" x="743.65" y="357.96" type="priority" />
    <node id="435759029" x="1347.34" y="1364.61" type="priority">
        <param key="buffer_stop" value="true" />
    </node>
    <node id="435759031" x="1369.08" y="1438.14" type="priority" />
    <node id="4378171721" x="981.09" y="569.67" type="priority" />
    <node id="4378171726" x="1036.22" y="576.27" type="priority" />
    <node id="4378171763" x="936.86" y="646.37" type="priority" />
    <node id="4378185396" x="851.82" y="853.58" type="priority" />
    <node id="4378185397" x="897.25" y="855.50" type="right_before_left" />
    <node id="4378185400" x="966.75" y="858.46" type="right_before_left" />
    <node id="4378185408" x="1164.68" y="866.99" type="priority" />
    <node id="4378185411" x="931.66" y="869.01" type="priority" />
    <node id="4378185413" x="964.82" y="871.72" type="right_before_left" />
    <node id="4378185422" x="896.40" y="880.95" type="priority" />
    <node id="4378185430" x="955.57" y="894.85" type="right_before_left" />
    <node id="4378185433" x="1077.35" y="899.87" type="priority" />
    <node id="4378185442" x="983.74" y="907.23" type="priority" />
    <node id="4378185609" x="1185.99" y="935.99" type="right_before_left" />
    <node id="4378185632" x="1167.99" y="943.42" type="priority" />
    <node id="4378185636" x="1124.17" y="943.95" type="right_before_left" />
    <node id="4378185653" x="1169.90" y="949.24" type="right_before_left" />
    <node id="4378185658" x="1163.98" y="950.91" type="right_before_left" />
    <node id="4378185663" x="1208.33" y="953.82" type="priority" />
    <node id="4378185666" x="1084.56" y="956.09" type="right_before_left" />
    <node id="4378185670" x="1128.47" y="957.87" type="right_before_left" />
    <node id="4378185683" x="1062.68" y="961.83" type="priority" />
    <node id="4378185791" x="1182.52" y="965.23" type="right_before_left" />
    <node id="4378185796" x="1189.08" y="968.45" type="priority" />
    <node id="4378185803" x="1166.18" y="970.76" type="right_before_left" />
    <node id="4378185811" x="1153.05" y="973.80" type="right_before_left" />
    <node id="4378185816" x="909.69" y="974.00" type="priority" />
    <node id="4378185821" x="1083.43" y="975.53" type="priority" />
    <node id="4378185824" x="1140.72" y="976.65" type="right_before_left" />
    <node id="4378185829" x="1068.08" y="978.73" type="right_before_left" />
    <node id="4378185830" x="1128.17" y="979.55" type="right_before_left" />
    <node id="4378185835" x="1115.36" y="982.52" type="right_before_left" />
    <node id="4378185840" x="1102.62" y="985.42" type="right_before_left" />
    <node id="4378185857" x="1095.30" y="1003.82" type="right_before_left" />
    <node id="4378185859" x="1084.97" y="1007.30" type="right_before_left" />
    <node id="4378185861" x="1180.28" y="1008.72" type="right_before_left" />
    <node id="4378185866" x="1167.27" y="1013.34" type="right_before_left" />
    <node id="4378185867" x="1155.21" y="1017.61" type="priority" />
    <node id="4378185872" x="1089.70" y="1020.65" type="right_before_left" />
    <node id="4378185874" x="1142.73" y="1022.03" type="right_before_left" />
    <node id="4378185875" x="1007.91" y="1022.71" type="priority" />
    <node id="4378185879" x="995.20" y="1026.74" type="right_before_left" />
    <node id="4378185882" x="1015.48" y="1029.87" type="right_before_left" />
    <node id="4378185883" x="1118.26" y="1030.71" type="right_before_left" />
    <node id="4378185886" x="976.94" y="1032.54" type="right_before_left" />
    <node id="4378185887" x="1094.25" y="1033.49" type="right_before_left" />
    <node id="4378185894" x="1191.63" y="1039.31" type="right_before_left" />
    <node id="4378185898" x="975.85" y="1042.74" type="right_before_left" />
    <node id="4378185900" x="1177.51" y="1044.31" type="priority" />
    <node id="4378185902" x="1020.86" y="1045.09" type="right_before_left" />
    <node id="4378185910" x="915.32" y="1050.89" type="right_before_left" />
    <node id="4378185914" x="900.65" y="1052.17" type="right_before_left" />
    <node id="4378185917" x="1136.56" y="1054.21" type="priority" />
    <node id="4378185922" x="1025.39" y="1057.83" type="right_before_left" />
    <node id="4378185926" x="1199.53" y="1060.59" type="right_before_left" />
    <node id="4378185927" x="978.97" y="1059.97" type="right_before_left" />
    <node id="4378185928" x="1104.25" y="1060.57" type="priority" />
    <node id="4378185930" x="931.02" y="1061.76" type="right_before_left" />
    <node id="4378185931" x="916.20" y="1062.99" type="right_before_left" />
    <node id="4378185933" x="1179.65" y="1067.63" type="priority" />
    <node id="4378185936" x="1029.68" y="1069.99" type="right_before_left" />
    <node id="4378185938" x="982.63" y="1072.95" type="priority" />
    <node id="4378185947" x="1004.37" y="1079.24" type="priority" />
    <node id="4378185948" x="1206.93" y="1080.53" type="right_before_left" />
    <node id="4378185956" x="991.72" y="1083.87" type="right_before_left" />
    <node id="4378185974" x="1232.91" y="1090.50" type="right_before_left" />
    <node id="4378185977" x="1256.82" y="1090.83" type="priority" />
    <node id="4378185978" x="1210.86" y="1091.11" type="right_before_left" />
    <node id="4378185985" x="1008.87" y="1091.80" type="right_before_left" />
    <node id="4378185995" x="996.38" y="1097.13" type="priority" />
    <node id="4378185999" x="1235.45" y="1099.98" type="right_before_left" />
    <node id="4378186012" x="1216.78" y="1107.05" type="right_before_left" />
    <node id="4378186013" x="952.85" y="1106.47" type="right_before_left" />
    <node id="4378186020" x="934.46" y="1108.80" type="right_before_left" />
    <node id="4378186026" x="1045.13" y="1113.58" type="right_before_left" />
    <node id="4378186047" x="1170.94" y="1124.40" type="right_before_left" />
    <node id="4378186048" x="1257.72" y="1125.07" type="priority" />
    <node id="4378186054" x="958.71" y="1126.36" type="right_before_left" />
    <node id="4378186057" x="1050.96" y="1128.68" type="right_before_left" />
    <node id="4378186081" x="1135.62" y="1136.46" type="priority" />
    <node id="4378186087" x="1214.35" y="1138.61" type="priority" />
    <node id="4378186102" x="921.86" y="1140.44" type="right_before_left" />
    <node id="4378186115" x="963.91" y="1146.33" type="priority" />
    <node id="4378186122" x="1180.16" y="1150.72" type="right_before_left" />
    <node id="4378186127" x="1176.31" y="1154.05" type="right_before_left" />
    <node id="4378186134" x="1077.38" y="1157.15" type="priority" />
    <node id="4378186145" x="1063.44" y="1162.10" type="right_before_left" />
    <node id="4378186150" x="1147.89" y="1164.20" type="right_before_left" />
    <node id="4378186151" x="1369.83" y="1165.93" type="right_before_left" />
    <node id="4378186168" x="1123.88" y="1171.98" type="right_before_left" />
    <node id="4378186170" x="1182.81" y="1172.53" type="priority" />
    <node id="4378186177" x="1112.98" y="1175.72" type="right_before_left" />
    <node id="4378186188" x="1098.91" y="1180.56" type="right_before_left" />
    <node id="4378186205" x="1266.23" y="1194.86" type="right_before_left" />
    <node id="4378186207" x="1063.29" y="1194.59" type="right_before_left" />
    <node id="4378186208" x="1369.71" y="1196.07" type="right_before_left" />
    <node id="4378186209" x="1293.60" y="1195.74" type="priority" />
    <node id="4378186212" x="1010.46" y="1195.45" type="right_before_left" />
    <node id="4378186214" x="1023.55" y="1196.45" type="right_before_left" />
    <node id="4378186216" x="1036.39" y="1198.05" type="right_before_left" />
    <node id="4378186259" x="1064.10" y="1232.60" type="right_before_left" />
    <node id="4378186293" x="1072.64" y="1260.32" type="priority" />
    <node id="4378186331" x="1223.85" y="1275.80" type="priority" />
    <node id="4378186338" x="1100.71" y="1277.01" type="right_before_left" />
    <node id="4378186343" x="1159.61" y="1279.10" type="right_before_left" />
    <node id="4378186394" x="1305.32" y="1305.75" type="right_before_left" />
    <node id="4378186414" x="1165.34" y="1316.60" type="right_before_left" />
    <node id="4378186431" x="1143.23" y="1324.51" type="right_before_left" />
    <node id="4378186478" x="1125.44" y="1349.47" type="right_before_left" />
    <node id="4378186481" x="1111.19" y="1354.42" type="priority" />
    <node id="4378186498" x="1010.76" y="1379.75" type="priority" />
    <node id="4381093225" x="974.05" y="555.91" type="priority" />
    <node id="4381093226" x="958.23" y="570.72" type="priority" />
    <node id="4381093227" x="957.02" y="550.59" type="priority" />
    <node id="4381093229" x="974.88" y="559.78" type="priority" />