<nodes xmlns:xsi="http://www.w3.org/2001/XMLSchema-instance" version="1.6" xsi:noNamespaceSchemaLocation="http://sumo.dlr.de/xsd/nodes_file.xsd">
    <location netOffset="0.00,0.00" convBoundary="0.00,50.00,100.00,100.00" origBoundary="-10000000000.00,-10000000000.00,10000000000.00,10000000000.00" projParameter="!" />

    <node id="leftBottom" x="0.00" y="50.00" type="priority" />
    <node id="leftTop" x="0.00" y="100.00" type="priority" />
    <node id="middleBottom" x="50.00" y="50.00" type="right_before_left" />
    <node id="middleTop" x="50.00" y="100.00" type="priority" />
    <node id="rightBottom" x="100.00" y="50.00" type="priority" />
    <node id="rightTop" x="100.00" y="100.00" type="priority" />
<node id="TLP_0_0" x="50.0" y="75.0" type="priority" /></nodes>