<edges xmlns:xsi="http://www.w3.org/2001/XMLSchema-instance" version="1.6" xsi:noNamespaceSchemaLocation="http://sumo.dlr.de/xsd/edges_file.xsd">
    <edge id="leftBottom_to_leftTop" from="leftBottom" to="leftTop" priority="1" numLanes="1" speed="13.89" />
    <edge id="leftBottom_to_middleBottom" from="leftBottom" to="middleBottom" priority="1" numLanes="1" speed="13.89" />
    <edge id="leftTop_to_leftBottom" from="leftTop" to="leftBottom" priority="1" numLanes="1" speed="13.89" />
    <edge id="leftTop_to_middleTop" from="leftTop" to="middleTop" priority="1" numLanes="1" speed="13.89" />
    <edge id="middleBottom_to_leftBottom" from="middleBottom" to="leftBottom" priority="1" numLanes="1" speed="13.89" />
    <edge id="middleBottom_to_middleTop" from="middleBottom" to="middleTop" priority="1" numLanes="1" speed="13.89" />
    <edge id="middleBottom_to_rightBottom" from="middleBottom" to="rightBottom" priority="1" numLanes="1" speed="13.89" />
    <edge id="middleTop_to_leftTop" from="middleTop" to="leftTop" priority="1" numLanes="1" speed="13.89" />
    <edge id="middleTop_to_middleBottom" from="middleTop" to="middleBottom" priority="1" numLanes="1" speed="13.89" />
    <edge id="middleTop_to_rightTop" from="middleTop" to="rightTop" priority="1" numLanes="1" speed="13.89" />
    <edge id="rightBottom_to_middleBottom" from="rightBottom" to="middleBottom" priority="1" numLanes="1" speed="13.89" />
    <edge id="rightBottom_to_rightTop" from="rightBottom" to="rightTop" priority="1" numLanes="1" speed="13.89" />
    <edge id="rightTop_to_middleTop" from="rightTop" to="middleTop" priority="1" numLanes="1" speed="13.89" />
    <edge id="rightTop_to_rightBottom" from="rightTop" to="rightBottom" priority="1" numLanes="1" speed="13.89" />
<edge id="newEdge_0_0" from="newNode_0_0" to="middleBottom" priority="1" numLanes="1" speed="13.89" /><edge id="newEdge_0_1" from="newNode_0_1" to="middleBottom" priority="1" numLanes="1" speed="13.89" /><edge id="newEdge_0_2" from="newNode_0_2" to="middleBottom" priority="1" numLanes="1" speed="13.89" /><edge id="newEdge_0_3" from="newNode_0_3" to="middleBottom" priority="1" numLanes="1" speed="13.89" /><edge id="newEdge_1_0" from="newNode_1_0" to="middleBottom" priority="1" numLanes="1" speed="13.89" /><edge id="newEdge_1_1" from="newNode_1_1" to="middleBottom" priority="1" numLanes="1" speed="13.89" /><edge id="newEdge_1_2" from="newNode_1_2" to="middleBottom" priority="1" numLanes="1" speed="13.89" /><edge id="newEdge_1_3" from="newNode_1_3" to="middleBottom" priority="1" numLanes="1" speed="13.89" /><edge id="newEdge_2_0" from="newNode_2_0" to="middleBottom" priority="1" numLanes="1" speed="13.89" /><edge id="newEdge_2_1" from="newNode_2_1" to="middleBottom" priority="1" numLanes="1" speed="13.89" /><edge id="newEdge_2_2" from="newNode_2_2" to="middleBottom" priority="1" numLanes="1" speed="13.89" /><edge id="newEdge_2_3" from="newNode_2_3" to="middleBottom" priority="1" numLanes="1" speed="13.89" /><edge id="newEdge_3_0" from="newNode_3_0" to="middleBottom" priority="1" numLanes="1" speed="13.89" /><edge id="newEdge_3_1" from="newNode_3_1" to="middleBottom" priority="1" numLanes="1" speed="13.89" /><edge id="newEdge_3_2" from="newNode_3_2" to="middleBottom" priority="1" numLanes="1" speed="13.89" /><edge id="newEdge_3_3" from="newNode_3_3" to="middleBottom" priority="1" numLanes="1" speed="13.89" /></edges>