<edges xmlns:xsi="http://www.w3.org/2001/XMLSchema-instance" version="1.6" xsi:noNamespaceSchemaLocation="http://sumo.dlr.de/xsd/edges_file.xsd">
    <edge id="-106334866" from="1223751746" to="1223751757" priority="1" type="highway.service" numLanes="1" speed="5.56" allow="pedestrian delivery bicycle" />
    <edge id="-108480588#0" from="433073103" to="4494941281" priority="10" type="highway.tertiary" numLanes="1" speed="22.22" disallow="tram rail_urban rail rail_electric rail_fast ship" />
    <edge id="-108480588#1" from="4494941277" to="433073103" priority="10" type="highway.tertiary" numLanes="1" speed="22.22" disallow="tram rail_urban rail rail_electric rail_fast ship" />
    <edge id="-141476900#0" from="4573598284" to="4381093242" priority="11" type="highway.secondary" numLanes="1" speed="27.78" shape="942.86,463.17 957.64,521.02 961.86,533.32" disallow="tram rail_urban rail rail_electric rail_fast ship" />
    <edge id="-141476900#1" from="5198539828" to="4573598284" priority="11" type="highway.secondary" numLanes="1" speed="27.78" disallow="tram rail_urban rail rail_electric rail_fast ship" />
    <edge id="-141476900#2" from="287458452" to="5198539828" priority="11" type="highway.secondary" numLanes="1" speed="27.78" disallow="tram rail_urban rail rail_electric rail_fast ship" />
    <edge id="-160379534#0" from="1724272861" to="1724272859" priority="4" type="highway.unclassified" numLanes="1" speed="13.89" shape="1519.83,1104.47 1517.09,1111.39 1519.53,1119.93 1526.92,1129.82 1537.17,1136.61" disallow="tram rail_urban rail rail_electric rail_fast ship" />
    <edge id="-160379534#1" from="1724272859" to="1724272861" priority="4" type="highway.unclassified" numLanes="1" speed="13.89" shape="1537.17,1136.61 1532.96,1124.50 1528.38,1104.73 1519.83,1104.47" disallow="tram rail_urban rail rail_electric rail_fast ship" />
    <edge id="-160379536" from="3573222223" to="1724272859" priority="4" type="highway.unclassified" numLanes="1" speed="13.89" shape="1512.14,1198.67 1520.39,1196.21 1545.38,1187.72 1550.12,1181.26 1550.64,1174.86 1537.17,1136.61" disallow="tram rail_urban rail rail_electric rail_fast ship" />
    <edge id="-160379537#0" from="3573222224" to="1724272845" priority="4" type="highway.unclassified" numLanes="1" speed="13.89" shape="1479.33,1199.88 1488.17,1202.96 1496.77,1204.50" disallow="tram rail_urban rail rail_electric rail_fast ship" />
    <edge id="-160379537#1" from="1724272908" to="3573222224" priority="4" type="highway.unclassified" numLanes="1" speed="13.89" shape="1403.78,1048.81 1453.79,1179.83 1464.83,1191.56 1479.33,1199.88" disallow="tram rail_urban rail rail_electric rail_fast ship" />
    <edge id="-160379545" from="1724272884" to="3573222221" priority="4" type="highway.unclassified" numLanes="1" speed="13.89" shape="1475.86,1135.44 1491.81,1179.41 1495.37,1189.68 1498.35,1198.30" disallow="tram rail_urban rail rail_electric rail_fast ship" />
    <edge id="-160379547#0" from="1724272910" to="1724272884" priority="4" type="highway.unclassified" numLanes="1" speed="13.89" shape="1474.09,1105.42 1469.20,1106.70 1466.03,1111.16 1470.87,1123.78 1475.86,1135.44" disallow="tram rail_urban rail rail_electric rail_fast ship" />
    <edge id="-160379547#1" from="1724272884" to="1724272910" priority="4" type="highway.unclassified" numLanes="1" speed="13.89" shape="1475.86,1135.44 1477.95,1126.55 1479.36,1116.95 1478.19,1108.08 1474.09,1105.42" disallow="tram rail_urban rail rail_electric rail_fast ship" />
    <edge id="-166972992#0" from="431647245" to="cluster_112613584_112652015" priority="11" type="highway.secondary" numLanes="1" speed="27.78" shape="493.41,1186.47 498.45,1254.67" disallow="tram rail_urban rail rail_electric rail_fast ship" />
    <edge id="-166972992#1" from="444004650" to="431647245" priority="11" type="highway.secondary" numLanes="1" speed="27.78" shape="492.53,1138.93 493.27,1177.27 493.41,1186.47" disallow="tram rail_urban rail rail_electric rail_fast ship" />
    <edge id="-166972992#2" from="444004648" to="444004650" priority="11" type="highway.secondary" numLanes="1" speed="27.78" shape="485.02,1056.78 487.05,1082.62 492.53,1138.93" disallow="tram rail_urban rail rail_electric rail_fast ship" />
    <edge id="-166972992#3" from="4585887625" to="444004648" priority="11" type="highway.secondary" numLanes="1" speed="27.78" disallow="tram rail_urban rail rail_electric rail_fast ship" />
    <edge id="-166972992#4" from="3170300783" to="4585887625" priority="11" type="highway.secondary" numLanes="1" speed="27.78" shape="467.81,864.47 473.23,926.53 473.92,932.72" disallow="tram rail_urban rail rail_electric rail_fast ship" />
    <edge id="-166972992#6" from="128560419" to="3170300783" priority="11" type="highway.secondary" numLanes="1" speed="27.78" shape="451.31,639.17 452.18,654.82 452.39,658.60 454.92,707.22 457.44,748.51 466.70,852.99 467.81,864.47" disallow="tram rail_urban rail rail_electric rail_fast ship" />
    <edge id="-195652230" from="cluster_2060757079_3170300791" to="2060757045" priority="3" type="highway.residential" numLanes="1" speed="13.89" shape="810.54,1014.21 796.39,1028.15 796.23,1054.13" disallow="tram rail_urban rail rail_electric rail_fast ship" />
    <edge id="-195652231#0" from="2060757035" to="cluster_2060757021_2060757028" priority="3" type="highway.residential" numLanes="1" speed="13.89" shape="709.23,1024.65 710.30,1020.74 712.99,1016.38 726.49,1002.44" disallow="tram rail_urban rail rail_electric rail_fast ship" />
    <edge id="-195652231#1" from="2060757023" to="2060757035" priority="3" type="highway.residential" numLanes="1" speed="13.89" disallow="tram rail_urban rail rail_electric rail_fast ship" />
    <edge id="-195652232#0" from="3170300788" to="2060757073" priority="3" type="highway.residential" numLanes="1" speed="13.89" disallow="tram rail_urban rail rail_electric rail_fast ship" />
    <edge id="-195652232#1" from="2060757069" to="3170300788" priority="3" type="highway.residential" numLanes="1" speed="13.89" disallow="tram rail_urban rail rail_electric rail_fast ship" />
    <edge id="-195652232#2" from="2060757061" to="2060757069" priority="3" type="highway.residential" numLanes="1" speed="13.89" disallow="tram rail_urban rail rail_electric rail_fast ship" />
    <edge id="-195652232#3" from="2060757071" to="2060757061" priority="3" type="highway.residential" numLanes="1" speed="13.89" disallow="tram rail_urban rail rail_electric rail_fast ship" />
    <edge id="-195652232#4" from="cluster_2060757079_3170300791" to="2060757071" priority="3" type="highway.residential" numLanes="1" speed="13.89" shape="810.54,1014.21 805.27,1008.35" disallow="tram rail_urban rail rail_electric rail_fast ship" />
    <edge id="-195652232#6" from="2060757041" to="cluster_2060757079_3170300791" priority="3" type="highway.residential" numLanes="1" speed="13.89" shape="823.28,1030.59 814.62,1019.44" disallow="tram rail_urban rail rail_electric rail_fast ship" />
    <edge id="-195652233" from="3170300779" to="2060757069" priority="3" type="highway.residential" numLanes="1" speed="13.89" shape="796.22,866.56 808.04,887.91 804.95,973.06 787.33,989.06" disallow="tram rail_urban rail rail_electric rail_fast ship" />
    <edge id="-195652234#1" from="2060757063" to="cluster_2060757032_3170300774" priority="3" type="highway.residential" numLanes="1" speed="13.89" shape="813.38,855.22 845.89,833.21" disallow="tram rail_urban rail rail_electric rail_fast ship" />
    <edge id="-195652234#2" from="3170300779" to="2060757063" priority="3" type="highway.residential" numLanes="1" speed="13.89" disallow="tram rail_urban rail rail_electric rail_fast ship" />
    <edge id="-195652234#3" from="2060757081" to="3170300779" priority="3" type="highway.residential" numLanes="1" speed="13.89" disallow="tram rail_urban rail rail_electric rail_fast ship" />
    <edge id="-195652234#4" from="2060757073" to="2060757081" priority="3" type="highway.residential" numLanes="1" speed="13.89" shape="736.54,934.43 741.56,913.38 756.52,893.73 779.17,878.39" disallow="tram rail_urban rail rail_electric rail_fast ship" />
    <edge id="-195652235" from="2060757061" to="2060757085" priority="3" type="highway.residential" numLanes="1" speed="13.89" shape="794.77,997.22 779.36,1010.81 779.24,1054.27" disallow="tram rail_urban rail rail_electric rail_fast ship" />
    <edge id="-195652236#0" from="2060757055" to="cluster_2060757025_2060757067" priority="3" type="highway.residential" numLanes="1" speed="13.89" shape="697.43,970.82 690.20,962.99" disallow="tram rail_urban rail rail_electric rail_fast ship" />
    <edge id="-195652236#1" from="cluster_2060757021_2060757028" to="2060757055" priority="3" type="highway.residential" numLanes="1" speed="13.89" shape="726.49,1002.44 697.43,970.82" disallow="tram rail_urban rail rail_electric rail_fast ship" />
    <edge id="-195652238" from="2060757063" to="2060757071" priority="3" type="highway.residential" numLanes="1" speed="13.89" shape="813.38,855.22 827.89,875.67 822.44,991.29 805.27,1008.35" disallow="tram rail_urban rail rail_electric rail_fast ship" />
    <edge id="-195652240#0" from="cluster_2060757021_2060757028" to="2060757087" priority="3" type="highway.residential" numLanes="1" speed="13.89" shape="737.29,1013.99 736.47,1054.64" disallow="tram rail_urban rail rail_electric rail_fast ship" />
    <edge id="-195652240#1" from="3170300788" to="cluster_2060757021_2060757028" priority="3" type="highway.residential" numLanes="1" speed="13.89" shape="774.55,976.35 737.29,1013.99" disallow="tram rail_urban rail rail_electric rail_fast ship" />
    <edge id="-195652241#0" from="2060757055" to="2060757051" priority="1" type="highway.service" numLanes="1" speed="5.56" shape="697.43,970.82 685.24,981.71 679.72,983.51" allow="pedestrian delivery bicycle" />
    <edge id="-195652241#1" from="2060757059" to="2060757055" priority="1" type="highway.service" numLanes="1" speed="5.56" shape="714.85,950.46 713.95,955.17 697.43,970.82" allow="pedestrian delivery bicycle" />
    <edge id="-195653648" from="cluster_2060757025_2060757067" to="2060766657" priority="3" type="highway.residential" numLanes="1" speed="13.89" shape="682.35,972.29 671.61,966.41 618.18,979.69" disallow="tram rail_urban rail rail_electric rail_fast ship" />
    <edge id="-196972617#0" from="2072674362" to="412249443" priority="1" type="highway.service" numLanes="1" speed="5.56" shape="1293.65,296.94 1303.44,296.76 1315.85,296.54" allow="pedestrian delivery bicycle" />
    <edge id="-196972617#1" from="2072674363" to="2072674362" priority="1" type="highway.service" numLanes="1" speed="5.56" allow="pedestrian delivery bicycle" />
    <edge id="-196972618" from="2072674366" to="2072674362" priority="1" type="highway.service" numLanes="1" speed="5.56" shape="1292.97,324.78 1293.39,303.27 1293.65,296.94" allow="pedestrian delivery bicycle" />
    <edge id="-197100021#0" from="444004628" to="cluster_444004622_444004626" priority="3" type="highway.residential" numLanes="1" speed="13.89" shape="937.42,1329.56 964.76,1330.46" disallow="tram rail_urban rail rail_electric rail_fast ship" />
    <edge id="-197100021#1" from="2489687358" to="444004628" priority="3" type="highway.residential" numLanes="1" speed="13.89" shape="886.97,1327.68 933.01,1329.41 937.42,1329.56" disallow="tram rail_urban rail rail_electric rail_fast ship" />
    <edge id="-197100021#2" from="cluster_4378186448_444004655" to="2489687358" priority="3" type="highway.residential" numLanes="1" speed="13.89" shape="833.31,1335.29 869.51,1334.66 881.01,1327.54 886.97,1327.68" disallow="tram rail_urban rail rail_electric rail_fast ship" />
    <edge id="-198248591" from="2084090868" to="2084090870" priority="1" type="highway.service" numLanes="1" speed="5.56" allow="pedestrian delivery bicycle" />
    <edge id="-198248722#0" from="2084091565" to="cluster_444004669_4718388084" priority="3" type="highway.residential" numLanes="1" speed="13.89" shape="993.65,286.97 1000.21,280.49 1012.64,269.57 1019.84,267.14 1044.94,267.23 1052.01,268.40 1060.98,273.82 1070.18,280.14 1077.57,287.12 1083.16,297.23 1091.04,305.72 1096.13,309.85" disallow="tram rail_urban rail rail_electric rail_fast ship" />
    <edge id="-198248722#1" from="2084091568" to="2084091565" priority="3" type="highway.residential" numLanes="1" speed="13.89" shape="938.69,302.85 954.26,292.62 961.92,289.95 971.80,294.26 983.06,292.07 993.65,286.97" disallow="tram rail_urban rail rail_electric rail_fast ship" />
    <edge id="-198248726#1" from="4455723320" to="cluster_2084091557_8090821605" priority="3" type="highway.residential" numLanes="1" speed="13.89" shape="900.76,270.51 892.69,273.29 845.84,286.30 835.48,288.94 825.11,293.38 813.13,299.12" disallow="tram rail_urban rail rail_electric rail_fast ship" />
    <edge id="-198248726#2" from="4455723322" to="4455723320" priority="3" type="highway.residential" numLanes="1" speed="13.89" shape="977.95,216.72 960.15,230.72 922.02,255.03 900.76,270.51" disallow="tram rail_urban rail rail_electric rail_fast ship" />
    <edge id="-198248726#3" from="4455723324" to="4455723322" priority="3" type="highway.residential" numLanes="1" speed="13.89" shape="1001.68,211.22 1001.64,218.69 986.09,219.22 977.95,216.72" disallow="tram rail_urban rail rail_electric rail_fast ship" />
    <edge id="-198248726#4" from="4455723322" to="4455723324" priority="3" type="highway.residential" numLanes="1" speed="13.89" shape="977.95,216.72 984.97,210.47 1001.68,211.22" disallow="tram rail_urban rail rail_electric rail_fast ship" />
    <edge id="-200205516#0" from="4737169844" to="2102009665" priority="3" type="highway.residential" numLanes="1" speed="13.89" shape="573.00,929.35 565.80,949.86 541.28,1029.03 535.79,1056.35" disallow="tram rail_urban rail rail_electric rail_fast ship" />
    <edge id="-200205516#1" from="4737169868" to="4737169844" priority="3" type="highway.residential" numLanes="1" speed="13.89" shape="573.25,893.99 575.46,922.36 573.00,929.35" disallow="tram rail_urban rail rail_electric rail_fast ship" />
    <edge id="-200205516#2" from="4737169830" to="4737169868" priority="3" type="highway.residential" numLanes="1" speed="13.89" disallow="tram rail_urban rail rail_electric rail_fast ship" />
    <edge id="-200205516#3" from="4737169829" to="4737169830" priority="3" type="highway.residential" numLanes="1" speed="13.89" disallow="tram rail_urban rail rail_electric rail_fast ship" />
    <edge id="-200205516#4" from="2102009670" to="4737169829" priority="3" type="highway.residential" numLanes="1" speed="13.89" disallow="tram rail_urban rail rail_electric rail_fast ship" />
    <edge id="-200207562#0" from="430284846" to="2102030065" priority="3" type="highway.residential" numLanes="1" speed="13.89" shape="457.61,1383.16 439.13,1386.69 439.51,1398.54 429.56,1411.74 414.86,1429.84" disallow="tram rail_urban rail rail_electric rail_fast ship" />
    <edge id="-200207562#1" from="cluster_2102030072_7653608691" to="430284846" priority="3" type="highway.residential" numLanes="1" speed="13.89" shape="510.80,1376.41 502.34,1376.95 457.61,1383.16" disallow="tram rail_urban rail rail_electric rail_fast ship" />
    <edge id="-205638147#0" from="3573222098" to="2156098695" priority="1" type="highway.service" numLanes="1" speed="5.56" allow="pedestrian delivery bicycle" />
    <edge id="-205638147#1" from="2156098729" to="3573222098" priority="1" type="highway.service" numLanes="1" speed="5.56" allow="pedestrian delivery bicycle" />
    <edge id="-205638878#0" from="cluster_3554953689_3554953690" to="2156104174" priority="4" type="highway.unclassified" numLanes="1" speed="13.89" shape="1288.11,1145.81 1296.19,1142.68" disallow="tram rail_urban rail rail_electric rail_fast ship" />
    <edge id="-205638878#2" from="2156104173" to="cluster_3554953689_3554953690" priority="4" type="highway.unclassified" numLanes="1" speed="13.89" shape="1277.57,1149.89 1285.31,1146.89" disallow="tram rail_urban rail rail_electric rail_fast ship" />
    <edge id="-206868043" from="444004644" to="2169148352" priority="3" type="highway.residential" numLanes="1" speed="13.89" disallow="tram rail_urban rail rail_electric rail_fast ship" />
    <edge id="-208265320#0" from="cluster_2185792256_6249303851" to="4517268344" priority="3" type="highway.residential" numLanes="1" speed="13.89" shape="1877.01,600.68 1875.36,596.42 1872.62,588.63 1872.05,584.80 1873.15,579.31 1874.06,576.37 1932.55,525.17 1933.51,521.24 1934.27,487.43" disallow="tram rail_urban rail rail_electric rail_fast ship" />
    <edge id="-208272059#0" from="6249303867" to="cluster_2185792256_6249303851" priority="1" type="highway.path" numLanes="1" speed="2.78" shape="1854.71,606.67 1877.01,600.68" width="2.00" allow="pedestrian bicycle" />
    <edge id="-208272059#1" from="4517268293" to="6249303867" priority="1" type="highway.path" numLanes="1" speed="2.78" shape="1818.49,609.30 1845.18,609.81 1854.71,606.67" width="2.00" allow="pedestrian bicycle" />
    <edge id="-209633322#0" from="3573222212" to="3573222239" priority="4" type="highway.unclassified" numLanes="1" speed="13.89" shape="1713.18,1187.67 1683.07,1197.97 1610.14,1224.26" disallow="tram rail_urban rail rail_electric rail_fast ship" />
    <edge id="-209633322#1" from="420807840" to="3573222212" priority="4" type="highway.unclassified" numLanes="1" speed="13.89" disallow="tram rail_urban rail rail_electric rail_fast ship" />
    <edge id="-236978557" from="2449318866" to="435240972" priority="3" type="highway.residential" numLanes="1" speed="13.89" shape="764.27,432.13 745.28,375.51 743.65,357.96" disallow="tram rail_urban rail rail_electric rail_fast ship" />
    <edge id="-238249552" from="2460915651" to="cluster_412249448_4566797421" priority="1" type="highway.service" numLanes="1" speed="5.56" shape="1654.80,414.00 1643.11,376.29 1639.83,353.33" allow="pedestrian delivery bicycle" />
    <edge id="-238249553" from="412249450" to="2460915655" priority="1" type="highway.service" numLanes="1" speed="5.56" shape="1621.34,398.44 1633.67,397.98 1641.53,401.60 1650.34,416.56" allow="pedestrian delivery bicycle" />
    <edge id="-238249554#0" from="2460915655" to="2460915651" priority="1" type="highway.service" numLanes="1" speed="5.56" shape="1650.34,416.56 1692.01,518.54 1719.96,507.70 1680.79,404.89 1654.80,414.00" allow="pedestrian delivery bicycle" />
    <edge id="-238249554#1" from="2460915651" to="2460915655" priority="1" type="highway.service" numLanes="1" speed="5.56" allow="pedestrian delivery bicycle" />
    <edge id="-238249556#0" from="2460915671" to="2460915663" priority="1" type="highway.service" numLanes="1" speed="5.56" allow="pedestrian delivery bicycle" />
    <edge id="-238249556#1" from="2460915668" to="2460915671" priority="1" type="highway.service" numLanes="1" speed="5.56" shape="1854.77,402.48 1860.46,374.08 1866.56,338.86 1861.79,325.91 1853.74,305.38 1843.64,298.80" allow="pedestrian delivery bicycle" />
    <edge id="-238249556#2" from="2460915670" to="2460915668" priority="1" type="highway.service" numLanes="1" speed="5.56" shape="1830.45,412.15 1846.74,406.45 1854.77,402.48" allow="pedestrian delivery bicycle" />
    <edge id="-238249557" from="2460915672" to="2460915671" priority="1" type="highway.service" numLanes="1" speed="5.56" allow="pedestrian delivery bicycle" />
    <edge id="-241285511" from="2489687347" to="2489687353" priority="1" type="highway.path" numLanes="1" speed="2.78" shape="1051.93,1393.44 1047.14,1388.20 1042.52,1386.02 1038.15,1383.91 1032.16,1381.32" width="2.00" allow="pedestrian bicycle" />
    <edge id="-252334869" from="cluster_2169139649_2169139651_2169139656" to="2102030070" priority="3" type="highway.residential" numLanes="1" speed="13.89" shape="785.10,1411.12 760.07,1473.87 763.46,1482.17 770.94,1485.82" disallow="tram rail_urban rail rail_electric rail_fast ship" />
    <edge id="-254724123" from="2605258257" to="2605258290" priority="3" type="highway.residential" numLanes="1" speed="13.89" shape="591.05,1220.19 586.95,1139.25 586.59,1133.74" disallow="tram rail_urban rail rail_electric rail_fast ship" />
    <edge id="-256605509#1" from="128560421" to="128560419" priority="11" type="highway.secondary" numLanes="1" speed="27.78" shape="452.22,500.33 449.40,519.46 450.08,591.15 451.05,623.12 451.31,639.17" disallow="tram rail_urban rail rail_electric rail_fast ship" />
    <edge id="-256605510#0" from="128560423" to="128560421" priority="11" type="highway.secondary" numLanes="1" speed="27.78" disallow="tram rail_urban rail rail_electric rail_fast ship" />
    <edge id="-256605510#1" from="128560426" to="128560423" priority="11" type="highway.secondary" numLanes="1" speed="27.78" shape="487.42,354.37 485.72,361.37 478.01,393.92 477.59,396.07 470.38,429.42" disallow="tram rail_urban rail rail_electric rail_fast ship" />
    <edge id="-256605511#0" from="444004662" to="432597947" priority="10" type="highway.tertiary" numLanes="1" speed="22.22" shape="908.57,589.88 899.01,593.93 870.88,605.84 862.31,607.11" disallow="tram rail_urban rail rail_electric rail_fast ship" />
    <edge id="-256605511#1" from="2846609729" to="444004662" priority="10" type="highway.tertiary" numLanes="1" speed="22.22" shape="944.46,572.13 936.20,576.21 908.57,589.88" disallow="tram rail_urban rail rail_electric rail_fast ship" />
    <edge id="-26248564#0" from="cluster_444004669_4718388084" to="411506246" priority="11" type="highway.secondary" numLanes="1" speed="27.78" shape="1096.13,309.85 1114.54,292.19 1126.04,279.03" disallow="tram rail_urban rail rail_electric rail_fast ship" />
    <edge id="-26248564#2" from="cluster_444004676_4452248001" to="cluster_444004669_4718388084" priority="11" type="highway.secondary" numLanes="1" speed="27.78" shape="1007.83,376.68 1017.39,373.50 1032.83,367.40 1055.00,353.32 1072.22,335.62 1082.54,324.97" disallow="tram rail_urban rail rail_electric rail_fast ship" />
    <edge id="-27149266" from="3250683197" to="128560423" priority="3" type="highway.residential" numLanes="1" speed="13.89" shape="0.00,342.92 22.49,347.20 44.43,351.37 72.16,358.03 79.48,359.78 134.47,368.96 135.58,369.16 197.40,380.38 252.87,390.45 383.60,414.40 470.38,429.42" disallow="tram rail_urban rail rail_electric rail_fast ship" />
    <edge id="-311394889" from="3170300779" to="3170300775" priority="3" type="highway.residential" numLanes="1" speed="13.89" disallow="tram rail_urban rail rail_electric rail_fast ship" />
    <edge id="-311394890" from="2060757104" to="2060757035" priority="3" type="highway.residential" numLanes="1" speed="13.89" shape="669.33,1024.28 705.53,1024.83 709.23,1024.65" disallow="tram rail_urban rail rail_electric rail_fast ship" />
    <edge id="-311394891" from="2060757081" to="3170300788" priority="3" type="highway.residential" numLanes="1" speed="13.89" shape="779.17,878.39 790.90,898.14 787.68,963.12 774.55,976.35" disallow="tram rail_urban rail rail_electric rail_fast ship" />
    <edge id="-311394892#0" from="3170300775" to="3170300770" priority="3" type="highway.residential" numLanes="1" speed="13.89" disallow="tram rail_urban rail rail_electric rail_fast ship" />
    <edge id="-311394892#1" from="3170300785" to="3170300775" priority="3" type="highway.residential" numLanes="1" speed="13.89" shape="712.74,869.98 725.00,877.89 733.42,875.87 741.74,866.89 748.49,862.28 780.03,842.05" disallow="tram rail_urban rail rail_electric rail_fast ship" />
    <edge id="-311394892#2" from="3170300773" to="3170300785" priority="3" type="highway.residential" numLanes="1" speed="13.89" shape="706.07,830.37 710.05,864.82 712.74,869.98" disallow="tram rail_urban rail rail_electric rail_fast ship" />
    <edge id="-311394893#0" from="2102009670" to="3170300783" priority="3" type="highway.residential" numLanes="1" speed="13.89" shape="567.83,824.32 559.50,826.21 552.06,829.00 538.64,841.72 524.39,854.84 513.57,859.50 484.80,862.74 467.81,864.47" disallow="tram rail_urban rail rail_electric rail_fast ship" />
    <edge id="-311394893#1" from="cluster_4737169880_4737169882" to="2102009670" priority="3" type="highway.residential" numLanes="1" speed="13.89" shape="627.08,816.43 594.14,819.42 579.42,821.18 567.83,824.32" disallow="tram rail_urban rail rail_electric rail_fast ship" />
    <edge id="-311394893#3" from="4526607808" to="cluster_4737169880_4737169882" priority="3" type="highway.residential" numLanes="1" speed="13.89" shape="649.89,814.36 631.33,816.04" disallow="tram rail_urban rail rail_electric rail_fast ship" />
    <edge id="-311394893#4" from="4526607811" to="4526607808" priority="3" type="highway.residential" numLanes="1" speed="13.89" shape="708.03,809.00 703.93,809.37 649.89,814.36" disallow="tram rail_urban rail rail_electric rail_fast ship" />
    <edge id="-311394893#5" from="4737169885" to="4526607811" priority="3" type="highway.residential" numLanes="1" speed="13.89" disallow="tram rail_urban rail rail_electric rail_fast ship" />
    <edge id="-311394893#6" from="4526607776" to="4737169885" priority="3" type="highway.residential" numLanes="1" speed="13.89" shape="783.51,803.13 778.37,802.70 756.92,804.62" disallow="tram rail_urban rail rail_electric rail_fast ship" />
    <edge id="-311394893#7" from="3170300770" to="4526607776" priority="3" type="highway.residential" numLanes="1" speed="13.89" disallow="tram rail_urban rail rail_electric rail_fast ship" />
    <edge id="-311394893#8" from="cluster_2060757032_3170300774" to="3170300770" priority="3" type="highway.residential" numLanes="1" speed="13.89" shape="845.89,833.21 814.68,817.58" disallow="tram rail_urban rail rail_electric rail_fast ship" />
    <edge id="-311394894" from="2060757030" to="cluster_2060757079_3170300791" priority="1" type="highway.path" numLanes="1" speed="2.78" shape="846.46,1018.81 820.73,1017.88 814.62,1019.44" width="2.00" allow="pedestrian bicycle" />
    <edge id="-311394895#0" from="2060757059" to="2060757073" priority="3" type="highway.residential" numLanes="1" speed="13.89" disallow="tram rail_urban rail rail_electric rail_fast ship" />
    <edge id="-311394895#1" from="cluster_2060757025_2060757067" to="2060757059" priority="3" type="highway.residential" numLanes="1" speed="13.89" shape="690.20,962.99 693.22,960.23 714.85,950.46" disallow="tram rail_urban rail rail_electric rail_fast ship" />
    <edge id="-311394895#3" from="2060757051" to="cluster_2060757025_2060757067" priority="3" type="highway.residential" numLanes="1" speed="13.89" shape="679.72,983.51 682.35,972.29" disallow="tram rail_urban rail rail_electric rail_fast ship" />
    <edge id="-311394895#4" from="2060757104" to="2060757051" priority="3" type="highway.residential" numLanes="1" speed="13.89" disallow="tram rail_urban rail rail_electric rail_fast ship" />
    <edge id="-311394895#5" from="cluster_2060757057_444004649" to="2060757104" priority="3" type="highway.residential" numLanes="1" speed="13.89" shape="662.25,1055.27 669.33,1024.28" disallow="tram rail_urban rail rail_electric rail_fast ship" />
    <edge id="-349643787#0" from="3573222241" to="4327945216" priority="4" type="highway.unclassified" numLanes="1" speed="13.89" disallow="tram rail_urban rail rail_electric rail_fast ship" />
    <edge id="-349643787#1" from="4907380634" to="3573222241" priority="4" type="highway.unclassified" numLanes="1" speed="13.89" disallow="tram rail_urban rail rail_electric rail_fast ship" />
    <edge id="-349643787#2" from="3573222239" to="4907380634" priority="4" type="highway.unclassified" numLanes="1" speed="13.89" shape="1610.14,1224.26 1604.56,1226.27 1599.42,1228.08" disallow="tram rail_urban rail rail_electric rail_fast ship" />
    <edge id="-349643961#0" from="7918420635" to="412249445" priority="1" type="highway.service" numLanes="1" speed="5.56" allow="pedestrian delivery bicycle" />
    <edge id="-349643961#1" from="6329789292" to="7918420635" priority="1" type="highway.service" numLanes="1" speed="5.56" allow="pedestrian delivery bicycle" />
    <edge id="-349643961#2" from="7887558376" to="6329789292" priority="1" type="highway.service" numLanes="1" speed="5.56" shape="1345.91,372.71 1345.16,382.53 1335.21,382.07" allow="pedestrian delivery bicycle" />
    <edge id="-349643961#3" from="5258475326" to="7887558376" priority="1" type="highway.service" numLanes="1" speed="5.56" allow="pedestrian delivery bicycle" />
    <edge id="-349643961#4" from="3554953660" to="5258475326" priority="1" type="highway.service" numLanes="1" speed="5.56" shape="1440.54,321.24 1349.47,315.30 1347.91,336.56" allow="pedestrian delivery bicycle" />
    <edge id="-349643964#0" from="2084090865" to="444011318" priority="1" type="highway.service" numLanes="1" speed="5.56" shape="1199.97,335.61 1201.59,316.28 1198.78,311.16 1178.85,307.93 1148.34,308.79" allow="pedestrian delivery bicycle" />
    <edge id="-349643964#1" from="3554953666" to="2084090865" priority="1" type="highway.service" numLanes="1" speed="5.56" shape="1194.29,387.04 1193.55,383.13 1199.97,335.61" allow="pedestrian delivery bicycle" />
    <edge id="-35078500" from="411504984" to="411504977" priority="11" type="highway.secondary" numLanes="1" speed="27.78" shape="1532.45,217.81 1548.08,222.93 1552.26,224.31 1565.12,230.96 1574.35,236.36 1656.21,317.67" disallow="tram rail_urban rail rail_electric rail_fast ship" />
    <edge id="-35078501#1" from="411504977" to="411504995" priority="10" type="highway.tertiary" numLanes="1" speed="22.22" shape="1656.21,317.67 1674.18,277.14 1702.57,215.86 1721.82,172.75 1742.21,129.32 1769.53,68.21 1779.70,45.10 1788.86,24.79 1800.79,0.00" disallow="tram rail_urban rail rail_electric rail_fast ship" />
    <edge id="-35145152#0" from="412249443" to="412249442" priority="10" type="highway.tertiary" numLanes="1" speed="22.22" shape="1315.85,296.54 1316.40,284.75 1319.35,222.50 1320.59,207.74" disallow="tram rail_urban rail rail_electric rail_fast ship" />