<?xml version="1.0" encoding="UTF-8"?>

<!-- generated on 05/20/21 19:46:27 by Eclipse SUMO netconvert Version 1.8.0
<configuration xmlns:xsi="http://www.w3.org/2001/XMLSchema-instance" xsi:noNamespaceSchemaLocation="http://sumo.dlr.de/xsd/netconvertConfiguration.xsd">

    <input>
        <sumo-net-file value="input/feup.net.xml"/>
    </input>

    <output>
        <plain-output-prefix value="true"/>
    </output>

    <processing>
        <geometry.min-radius.fix.railways value="false"/>
        <geometry.max-grade.fix value="false"/>
        <offset.disable-normalization value="true"/>
        <lefthand value="false"/>
    </processing>

    <junctions>
        <no-turnarounds value="true"/>
        <junctions.corner-detail value="5"/>
        <junctions.limit-turn-speed value="5.5"/>
        <rectangular-lane-cut value="false"/>
    </junctions>

    <pedestrian>
        <walkingareas value="false"/>
    </pedestrian>

    <report>
        <aggregate-warnings value="5"/>
    </report>

</configuration>
-->

<connections version="1.6" xmlns:xsi="http://www.w3.org/2001/XMLSchema-instance" xsi:noNamespaceSchemaLocation="http://sumo.dlr.de/xsd/connections_file.xsd">
    <connection from="-106334866" to="35145272#2" fromLane="0" toLane="0"/>
    <connection from="-106334866" to="106334866" fromLane="0" toLane="0"/>

    <connection from="-108480588#0" to="36996745" fromLane="0" toLane="0"/>
    <connection from="-108480588#0" to="-36996746" fromLane="0" toLane="0"/>
    <connection from="-108480588#0" to="108480588#0" fromLane="0" toLane="0"/>

    <connection from="-108480588#1" to="-108480588#0" fromLane="0" toLane="0"/>
    <connection from="-108480588#1" to="37202416#0" fromLane="0" toLane="0"/>
    <connection from="-108480588#1" to="108480588#1" fromLane="0" toLane="0"/>

    <connection from="-141476900#0" to="536710726" fromLane="0" toLane="0"/>
    <connection from="-141476900#0" to="536710725" fromLane="0" toLane="0"/>

    <connection from="-141476900#1" to="461925680" fromLane="0" toLane="0"/>
    <connection from="-141476900#1" to="-141476900#0" fromLane="0" toLane="0"/>
    <connection from="-141476900#1" to="-456394709" fromLane="0" toLane="0"/>
    <connection from="-141476900#1" to="141476900#1" fromLane="0" toLane="0"/>

    <connection from="-141476900#2" to="536710727" fromLane="0" toLane="0"/>
    <connection from="-141476900#2" to="-141476900#1" fromLane="0" toLane="0"/>
    <connection from="-141476900#2" to="141476900#2" fromLane="0" toLane="0"/>

    <connection from="-160379534#0" to="-160379534#1" fromLane="0" toLane="0"/>
    <connection from="-160379534#0" to="160379536" fromLane="0" toLane="0"/>
    <connection from="-160379534#0" to="160379534#0" fromLane="0" toLane="0"/>

    <connection from="-160379534#1" to="-160379534#0" fromLane="0" toLane="0"/>

    <connection from="-160379536" to="160379534#0" fromLane="0" toLane="0"/>
    <connection from="-160379536" to="-160379534#1" fromLane="0" toLane="0"/>
    <connection from="-160379536" to="160379536" fromLane="0" toLane="0"/>

    <connection from="-160379537#0" to="351525659#4" fromLane="0" toLane="0" visibility="9.00"/>

    <connection from="-160379537#1" to="-160379537#0" fromLane="0" toLane="0"/>
    <connection from="-160379537#1" to="160379537#1" fromLane="0" toLane="0"/>

    <connection from="-160379545" to="351525659#0" fromLane="0" toLane="0" visibility="9.00"/>

    <connection from="-160379547#0" to="-160379547#1" fromLane="0" toLane="0"/>
    <connection from="-160379547#0" to="-160379545" fromLane="0" toLane="0"/>
    <connection from="-160379547#0" to="160379547#0" fromLane="0" toLane="0"/>

    <connection from="-160379547#1" to="-160379547#0" fromLane="0" toLane="0"/>

    <connection from="-166972992#0" to="434878392#0" fromLane="0" toLane="0"/>
    <connection from="-166972992#0" to="-63844506#3" fromLane="0" toLane="0"/>
    <connection from="-166972992#0" to="166973018" fromLane="0" toLane="1"/>
    <connection from="-166972992#0" to="166972992#0" fromLane="0" toLane="0"/>

    <connection from="-166972992#1" to="-166972992#0" fromLane="0" toLane="0"/>
    <connection from="-166972992#1" to="37112931" fromLane="0" toLane="0"/>
    <connection from="-166972992#1" to="166972992#1" fromLane="0" toLane="0"/>

    <connection from="-166972992#2" to="-166972992#1" fromLane="0" toLane="0"/>
    <connection from="-166972992#2" to="166972992#2" fromLane="0" toLane="0"/>

    <connection from="-166972992#3" to="37855525#0" fromLane="0" toLane="0"/>
    <connection from="-166972992#3" to="-166972992#2" fromLane="0" toLane="0"/>
    <connection from="-166972992#3" to="166972992#3" fromLane="0" toLane="0"/>

    <connection from="-166972992#4" to="-166972992#3" fromLane="0" toLane="0"/>
    <connection from="-166972992#4" to="463310478" fromLane="0" toLane="0"/>
    <connection from="-166972992#4" to="166972992#4" fromLane="0" toLane="0"/>

    <connection from="-166972992#6" to="311394893#0" fromLane="0" toLane="0"/>
    <connection from="-166972992#6" to="-166972992#4" fromLane="0" toLane="0"/>
    <connection from="-166972992#6" to="166972992#5" fromLane="0" toLane="0"/>

    <connection from="-195652230" to="37855525#7" fromLane="0" toLane="0"/>
    <connection from="-195652230" to="195652230" fromLane="0" toLane="0"/>

    <connection from="-195652231#0" to="-195652236#1" fromLane="0" toLane="0"/>
    <connection from="-195652231#0" to="195652240#1" fromLane="0" toLane="0"/>
    <connection from="-195652231#0" to="-195652240#0" fromLane="0" toLane="0"/>
    <connection from="-195652231#0" to="195652231#0" fromLane="0" toLane="0"/>

    <connection from="-195652231#1" to="311394890" fromLane="0" toLane="0"/>
    <connection from="-195652231#1" to="-195652231#0" fromLane="0" toLane="0"/>
    <connection from="-195652231#1" to="195652231#1" fromLane="0" toLane="0"/>

    <connection from="-195652232#0" to="311394895#0" fromLane="0" toLane="0"/>
    <connection from="-195652232#0" to="-195652234#4" fromLane="0" toLane="0"/>
    <connection from="-195652232#0" to="195652232#0" fromLane="0" toLane="0"/>

    <connection from="-195652232#1" to="-195652240#1" fromLane="0" toLane="0"/>
    <connection from="-195652232#1" to="-195652232#0" fromLane="0" toLane="0"/>
    <connection from="-195652232#1" to="311394891" fromLane="0" toLane="0"/>
    <connection from="-195652232#1" to="195652232#1" fromLane="0" toLane="0"/>

    <connection from="-195652232#2" to="-195652232#1" fromLane="0" toLane="0"/>
    <connection from="-195652232#2" to="195652233" fromLane="0" toLane="0"/>
    <connection from="-195652232#2" to="195652232#2" fromLane="0" toLane="0"/>

    <connection from="-195652232#3" to="-195652235" fromLane="0" toLane="0"/>
    <connection from="-195652232#3" to="-195652232#2" fromLane="0" toLane="0"/>
    <connection from="-195652232#3" to="195652232#3" fromLane="0" toLane="0"/>

    <connection from="-195652232#4" to="-195652232#3" fromLane="0" toLane="0"/>
    <connection from="-195652232#4" to="195652238" fromLane="0" toLane="0"/>
    <connection from="-195652232#4" to="195652232#4" fromLane="0" toLane="0"/>

    <connection from="-195652232#6" to="-195652230" fromLane="0" toLane="0"/>
    <connection from="-195652232#6" to="-195652232#4" fromLane="0" toLane="0"/>
    <connection from="-195652232#6" to="311394894" fromLane="0" toLane="0"/>
    <connection from="-195652232#6" to="195652232#6" fromLane="0" toLane="0"/>

    <connection from="-195652233" to="195652232#2" fromLane="0" toLane="0"/>
    <connection from="-195652233" to="-195652232#1" fromLane="0" toLane="0"/>
    <connection from="-195652233" to="195652233" fromLane="0" toLane="0"/>

    <connection from="-195652234#1" to="-311394893#8" fromLane="0" toLane="0"/>
    <connection from="-195652234#1" to="35997529#10" fromLane="0" toLane="0"/>
    <connection from="-195652234#1" to="-35997529#9" fromLane="0" toLane="0"/>
    <connection from="-195652234#1" to="195652234#1" fromLane="0" toLane="0"/>

    <connection from="-195652234#2" to="-195652234#1" fromLane="0" toLane="0"/>
    <connection from="-195652234#2" to="-195652238" fromLane="0" toLane="0"/>
    <connection from="-195652234#2" to="195652234#2" fromLane="0" toLane="0"/>

    <connection from="-195652234#3" to="-311394889" fromLane="0" toLane="0"/>
    <connection from="-195652234#3" to="-195652234#2" fromLane="0" toLane="0"/>
    <connection from="-195652234#3" to="-195652233" fromLane="0" toLane="0"/>
    <connection from="-195652234#3" to="195652234#3" fromLane="0" toLane="0"/>

    <connection from="-195652234#4" to="-195652234#3" fromLane="0" toLane="0"/>
    <connection from="-195652234#4" to="-311394891" fromLane="0" toLane="0"/>
    <connection from="-195652234#4" to="195652234#4" fromLane="0" toLane="0"/>

    <connection from="-195652235" to="37855525#6" fromLane="0" toLane="0"/>
    <connection from="-195652235" to="195652235" fromLane="0" toLane="0"/>

    <connection from="-195652236#0" to="311394895#3" fromLane="0" toLane="0"/>
    <connection from="-195652236#0" to="-195653648" fromLane="0" toLane="0"/>
    <connection from="-195652236#0" to="-311394895#1" fromLane="0" toLane="0"/>
    <connection from="-195652236#0" to="195652236#0" fromLane="0" toLane="0"/>

    <connection from="-195652236#1" to="-195652241#0" fromLane="0" toLane="0"/>
    <connection from="-195652236#1" to="-195652236#0" fromLane="0" toLane="0"/>
    <connection from="-195652236#1" to="195652241#1" fromLane="0" toLane="0"/>
    <connection from="-195652236#1" to="195652236#1" fromLane="0" toLane="0"/>

    <connection from="-195652238" to="195652232#4" fromLane="0" toLane="0"/>
    <connection from="-195652238" to="-195652232#3" fromLane="0" toLane="0"/>
    <connection from="-195652238" to="195652238" fromLane="0" toLane="0"/>

    <connection from="-195652240#0" to="37855525#5" fromLane="0" toLane="0"/>
    <connection from="-195652240#0" to="195652240#0" fromLane="0" toLane="0"/>

    <connection from="-195652240#1" to="-195652240#0" fromLane="0" toLane="0"/>
    <connection from="-195652240#1" to="195652231#0" fromLane="0" toLane="0"/>
    <connection from="-195652240#1" to="-195652236#1" fromLane="0" toLane="0"/>
    <connection from="-195652240#1" to="195652240#1" fromLane="0" toLane="0"/>

    <connection from="-195652241#0" to="311394895#4" fromLane="0" toLane="0"/>
    <connection from="-195652241#0" to="-311394895#3" fromLane="0" toLane="0"/>
    <connection from="-195652241#0" to="195652241#0" fromLane="0" toLane="0"/>

    <connection from="-195652241#1" to="195652236#1" fromLane="0" toLane="0"/>
    <connection from="-195652241#1" to="-195652241#0" fromLane="0" toLane="0"/>
    <connection from="-195652241#1" to="-195652236#0" fromLane="0" toLane="0"/>
    <connection from="-195652241#1" to="195652241#1" fromLane="0" toLane="0"/>

    <connection from="-195653648" to="195653648" fromLane="0" toLane="0"/>

    <connection from="-196972617#0" to="-35145152#0" fromLane="0" toLane="0"/>
    <connection from="-196972617#0" to="35145152#1" fromLane="0" toLane="0"/>
    <connection from="-196972617#0" to="196972617#0" fromLane="0" toLane="0"/>

    <connection from="-196972617#1" to="-196972617#0" fromLane="0" toLane="0"/>
    <connection from="-196972617#1" to="196972618" fromLane="0" toLane="0"/>
    <connection from="-196972617#1" to="196972617#1" fromLane="0" toLane="0"/>

    <connection from="-196972618" to="196972617#1" fromLane="0" toLane="0"/>
    <connection from="-196972618" to="-196972617#0" fromLane="0" toLane="0"/>
    <connection from="-196972618" to="196972618" fromLane="0" toLane="0"/>

    <connection from="-197100021#0" to="37855523#2" fromLane="0" toLane="0"/>
    <connection from="-197100021#0" to="-37855523#0" fromLane="0" toLane="0"/>
    <connection from="-197100021#0" to="37855521" fromLane="0" toLane="0"/>
    <connection from="-197100021#0" to="197100021#0" fromLane="0" toLane="0"/>

    <connection from="-197100021#1" to="-197100021#0" fromLane="0" toLane="0"/>
    <connection from="-197100021#1" to="37855522" fromLane="0" toLane="0"/>
    <connection from="-197100021#1" to="197100021#1" fromLane="0" toLane="0"/>

    <connection from="-197100021#2" to="-197100021#1" fromLane="0" toLane="0"/>
    <connection from="-197100021#2" to="197100021#2" fromLane="0" toLane="0"/>

    <connection from="-198248591" to="198248591" fromLane="0" toLane="0"/>

    <connection from="-198248722#0" to="-26248564#0" fromLane="0" toLane="0"/>
    <connection from="-198248722#0" to="-478627085#1" fromLane="0" toLane="0"/>
    <connection from="-198248722#0" to="26248564#2" fromLane="0" toLane="0"/>
    <connection from="-198248722#0" to="198248722#0" fromLane="0" toLane="0"/>

    <connection from="-198248722#1" to="-198248722#0" fromLane="0" toLane="0"/>
    <connection from="-198248722#1" to="198248722#1" fromLane="0" toLane="0"/>

    <connection from="-198248726#1" to="-868010881#0" fromLane="0" toLane="0"/>
    <connection from="-198248726#1" to="35104970#2" fromLane="0" toLane="0"/>
    <connection from="-198248726#1" to="868010881#1" fromLane="0" toLane="0"/>
    <connection from="-198248726#1" to="198248726#1" fromLane="0" toLane="0"/>

    <connection from="-198248726#2" to="-198248726#1" fromLane="0" toLane="0"/>
    <connection from="-198248726#2" to="198248726#2" fromLane="0" toLane="0"/>

    <connection from="-198248726#3" to="-198248726#2" fromLane="0" toLane="0"/>
    <connection from="-198248726#3" to="-198248726#4" fromLane="0" toLane="0"/>
    <connection from="-198248726#3" to="198248726#3" fromLane="0" toLane="0"/>

    <connection from="-198248726#4" to="-198248726#3" fromLane="0" toLane="0"/>

    <connection from="-200205516#0" to="37855525#1" fromLane="0" toLane="0"/>
    <connection from="-200205516#0" to="200205516#0" fromLane="0" toLane="0"/>

    <connection from="-200205516#1" to="-480746904#1" fromLane="0" toLane="0"/>
    <connection from="-200205516#1" to="-200205516#0" fromLane="0" toLane="0"/>
    <connection from="-200205516#1" to="200205516#1" fromLane="0" toLane="0"/>

    <connection from="-200205516#2" to="-200205516#1" fromLane="0" toLane="0"/>
    <connection from="-200205516#2" to="200205516#2" fromLane="0" toLane="0"/>

    <connection from="-200205516#3" to="480746900" fromLane="0" toLane="0"/>
    <connection from="-200205516#3" to="-200205516#2" fromLane="0" toLane="0"/>
    <connection from="-200205516#3" to="200205516#3" fromLane="0" toLane="0"/>

    <connection from="-200205516#4" to="-480746899#3" fromLane="0" toLane="0"/>
    <connection from="-200205516#4" to="-200205516#3" fromLane="0" toLane="0"/>
    <connection from="-200205516#4" to="200205516#4" fromLane="0" toLane="0"/>

    <connection from="-200207562#0" to="200207562#0" fromLane="0" toLane="0"/>

    <connection from="-200207562#1" to="-63844520" fromLane="0" toLane="0"/>
    <connection from="-200207562#1" to="-200207562#0" fromLane="0" toLane="0"/>
    <connection from="-200207562#1" to="200207562#1" fromLane="0" toLane="0"/>

    <connection from="-205638147#0" to="205638147#0" fromLane="0" toLane="0"/>

    <connection from="-205638147#1" to="-205638147#0" fromLane="0" toLane="0"/>
    <connection from="-205638147#1" to="205638143#1" fromLane="0" toLane="0"/>
    <connection from="-205638147#1" to="205638147#1" fromLane="0" toLane="0"/>

    <connection from="-205638878#0" to="205638880#0" fromLane="0" toLane="0"/>
    <connection from="-205638878#0" to="205638878#0" fromLane="0" toLane="0"/>

    <connection from="-205638878#2" to="-205638878#0" fromLane="0" toLane="0"/>

    <connection from="-206868043" to="206868043" fromLane="0" toLane="0"/>

    <connection from="-208265320#0" to="-429123180#0" fromLane="0" toLane="0"/>
    <connection from="-208265320#0" to="-455315138" fromLane="0" toLane="0"/>
    <connection from="-208265320#0" to="429123180#1" fromLane="0" toLane="0"/>

    <connection from="-208272059#0" to="-208265320#0" fromLane="0" toLane="0"/>
    <connection from="-208272059#0" to="667439829#2" fromLane="0" toLane="0"/>
    <connection from="-208272059#0" to="-667439829#1" fromLane="0" toLane="0"/>
    <connection from="-208272059#0" to="208272059#0" fromLane="0" toLane="0"/>

    <connection from="-208272059#1" to="461925687" fromLane="0" toLane="0"/>
    <connection from="-208272059#1" to="-208272059#0" fromLane="0" toLane="0"/>
    <connection from="-208272059#1" to="208272059#1" fromLane="0" toLane="0"/>

    <connection from="-209633322#0" to="-349643787#2" fromLane="0" toLane="0"/>
    <connection from="-209633322#0" to="-351525718" fromLane="0" toLane="0"/>
    <connection from="-209633322#0" to="349643787#3" fromLane="0" toLane="0"/>

    <connection from="-209633322#1" to="-209633322#0" fromLane="0" toLane="0"/>
    <connection from="-209633322#1" to="351525693#0" fromLane="0" toLane="0"/>
    <connection from="-209633322#1" to="209633322#1" fromLane="0" toLane="0"/>

    <connection from="-236978557" to="-456394922" fromLane="0" toLane="0"/>
    <connection from="-236978557" to="448568804" fromLane="0" toLane="0"/>
    <connection from="-236978557" to="236978557" fromLane="0" toLane="0"/>

    <connection from="-238249552" to="35145521#2" fromLane="0" toLane="0"/>
    <connection from="-238249552" to="-461135460" fromLane="0" toLane="0"/>
    <connection from="-238249552" to="-35145521#0" fromLane="0" toLane="0"/>
    <connection from="-238249552" to="238249552" fromLane="0" toLane="0"/>

    <connection from="-238249553" to="238249554#1" fromLane="0" toLane="0"/>
    <connection from="-238249553" to="-238249554#0" fromLane="0" toLane="0"/>
    <connection from="-238249553" to="238249553" fromLane="0" toLane="0"/>

    <connection from="-238249554#0" to="-238249554#1" fromLane="0" toLane="0"/>
    <connection from="-238249554#0" to="-238249552" fromLane="0" toLane="0"/>
    <connection from="-238249554#0" to="238249554#0" fromLane="0" toLane="0"/>

    <connection from="-238249554#1" to="-238249554#0" fromLane="0" toLane="0"/>
    <connection from="-238249554#1" to="238249553" fromLane="0" toLane="0"/>
    <connection from="-238249554#1" to="238249554#1" fromLane="0" toLane="0"/>

    <connection from="-238249556#0" to="461925689#1" fromLane="0" toLane="0"/>
    <connection from="-238249556#0" to="-461925689#0" fromLane="0" toLane="0"/>
    <connection from="-238249556#0" to="238249556#0" fromLane="0" toLane="0"/>

    <connection from="-238249556#1" to="-238249556#0" fromLane="0" toLane="0"/>
    <connection from="-238249556#1" to="238249557" fromLane="0" toLane="0"/>
    <connection from="-238249556#1" to="238249556#1" fromLane="0" toLane="0"/>

    <connection from="-238249556#2" to="-238249556#1" fromLane="0" toLane="0"/>
    <connection from="-238249556#2" to="415097761" fromLane="0" toLane="0"/>
    <connection from="-238249556#2" to="238249556#2" fromLane="0" toLane="0"/>

    <connection from="-238249557" to="238249556#1" fromLane="0" toLane="0"/>
    <connection from="-238249557" to="-238249556#0" fromLane="0" toLane="0"/>
    <connection from="-238249557" to="238249557" fromLane="0" toLane="0"/>

    <connection from="-241285511" to="241285511" fromLane="0" toLane="0"/>

    <connection from="-252334869" to="252334869" fromLane="0" toLane="0"/>

    <connection from="-254724123" to="37855527#1" fromLane="0" toLane="0"/>
    <connection from="-254724123" to="254724123" fromLane="0" toLane="0"/>

    <connection from="-256605509#1" to="-166972992#6" fromLane="0" toLane="0"/>
    <connection from="-256605509#1" to="27103806#0" fromLane="0" toLane="0"/>
    <connection from="-256605509#1" to="256605509#0" fromLane="0" toLane="0"/>

    <connection from="-256605510#0" to="37338734#0" fromLane="0" toLane="0"/>
    <connection from="-256605510#0" to="-256605509#1" fromLane="0" toLane="0"/>
    <connection from="-256605510#0" to="256605510#0" fromLane="0" toLane="0"/>

    <connection from="-256605510#1" to="-256605510#0" fromLane="0" toLane="0"/>
    <connection from="-256605510#1" to="27149266" fromLane="0" toLane="0"/>
    <connection from="-256605510#1" to="256605510#1" fromLane="0" toLane="0"/>

    <connection from="-256605511#0" to="-35997529#12" fromLane="0" toLane="0"/>
    <connection from="-256605511#0" to="-37143412#1" fromLane="0" toLane="0"/>
    <connection from="-256605511#0" to="256605511#0" fromLane="0" toLane="0"/>

    <connection from="-256605511#1" to="-256605511#0" fromLane="0" toLane="0"/>
    <connection from="-256605511#1" to="256605511#1" fromLane="0" toLane="0"/>

    <connection from="-26248564#0" to="37856053#0" fromLane="0" toLane="0"/>

    <connection from="-26248564#2" to="198248722#0" fromLane="0" toLane="0"/>
    <connection from="-26248564#2" to="-26248564#0" fromLane="0" toLane="0"/>
    <connection from="-26248564#2" to="-478627085#1" fromLane="0" toLane="0"/>
    <connection from="-26248564#2" to="26248564#2" fromLane="0" toLane="0"/>

    <connection from="-27149266" to="256605510#1" fromLane="0" toLane="0"/>
    <connection from="-27149266" to="-256605510#0" fromLane="0" toLane="0"/>
    <connection from="-27149266" to="27149266" fromLane="0" toLane="0"/>

    <connection from="-311394889" to="311394892#1" fromLane="0" toLane="0"/>
    <connection from="-311394889" to="-311394892#0" fromLane="0" toLane="0"/>
    <connection from="-311394889" to="311394889" fromLane="0" toLane="0"/>

    <connection from="-311394890" to="-195652231#0" fromLane="0" toLane="0"/>
    <connection from="-311394890" to="195652231#1" fromLane="0" toLane="0"/>
    <connection from="-311394890" to="311394890" fromLane="0" toLane="0"/>

    <connection from="-311394891" to="195652232#1" fromLane="0" toLane="0"/>
    <connection from="-311394891" to="-195652240#1" fromLane="0" toLane="0"/>
    <connection from="-311394891" to="-195652232#0" fromLane="0" toLane="0"/>
    <connection from="-311394891" to="311394891" fromLane="0" toLane="0"/>

    <connection from="-311394892#0" to="-311394893#7" fromLane="0" toLane="0"/>
    <connection from="-311394892#0" to="311394893#8" fromLane="0" toLane="0"/>
    <connection from="-311394892#0" to="311394892#0" fromLane="0" toLane="0"/>

    <connection from="-311394892#1" to="-311394892#0" fromLane="0" toLane="0"/>
    <connection from="-311394892#1" to="311394889" fromLane="0" toLane="0"/>
    <connection from="-311394892#1" to="311394892#1" fromLane="0" toLane="0"/>

    <connection from="-311394892#2" to="-311394892#1" fromLane="0" toLane="0"/>
    <connection from="-311394892#2" to="311394892#2" fromLane="0" toLane="0"/>

    <connection from="-311394893#0" to="-166972992#4" fromLane="0" toLane="0"/>
    <connection from="-311394893#0" to="166972992#5" fromLane="0" toLane="0"/>
    <connection from="-311394893#0" to="311394893#0" fromLane="0" toLane="0"/>

    <connection from="-311394893#1" to="-200205516#4" fromLane="0" toLane="0"/>
    <connection from="-311394893#1" to="-311394893#0" fromLane="0" toLane="0"/>
    <connection from="-311394893#1" to="456394706#0" fromLane="0" toLane="0"/>
    <connection from="-311394893#1" to="311394893#1" fromLane="0" toLane="0"/>

    <connection from="-311394893#3" to="-311394893#1" fromLane="0" toLane="0"/>
    <connection from="-311394893#3" to="311394893#3" fromLane="0" toLane="0"/>

    <connection from="-311394893#4" to="-311394893#3" fromLane="0" toLane="0"/>
    <connection from="-311394893#4" to="456394708" fromLane="0" toLane="0"/>
    <connection from="-311394893#4" to="311394893#4" fromLane="0" toLane="0"/>

    <connection from="-311394893#5" to="-311394893#4" fromLane="0" toLane="0"/>
    <connection from="-311394893#5" to="-456394708" fromLane="0" toLane="0"/>
    <connection from="-311394893#5" to="311394893#5" fromLane="0" toLane="0"/>

    <connection from="-311394893#6" to="480746899#0" fromLane="0" toLane="0"/>
    <connection from="-311394893#6" to="-311394893#5" fromLane="0" toLane="0"/>
    <connection from="-311394893#6" to="311394893#6" fromLane="0" toLane="0"/>

    <connection from="-311394893#7" to="-311394893#6" fromLane="0" toLane="0"/>
    <connection from="-311394893#7" to="456394705#0" fromLane="0" toLane="0"/>
    <connection from="-311394893#7" to="311394893#7" fromLane="0" toLane="0"/>

    <connection from="-311394893#8" to="311394892#0" fromLane="0" toLane="0"/>
    <connection from="-311394893#8" to="-311394893#7" fromLane="0" toLane="0"/>
    <connection from="-311394893#8" to="311394893#8" fromLane="0" toLane="0"/>

    <connection from="-311394894" to="195652232#6" fromLane="0" toLane="0"/>
    <connection from="-311394894" to="-195652230" fromLane="0" toLane="0"/>
    <connection from="-311394894" to="-195652232#4" fromLane="0" toLane="0"/>
    <connection from="-311394894" to="311394894" fromLane="0" toLane="0"/>

    <connection from="-311394895#0" to="-195652234#4" fromLane="0" toLane="0"/>
    <connection from="-311394895#0" to="195652232#0" fromLane="0" toLane="0"/>
    <connection from="-311394895#0" to="311394895#0" fromLane="0" toLane="0"/>

    <connection from="-311394895#1" to="-311394895#0" fromLane="0" toLane="0"/>
    <connection from="-311394895#1" to="-195652241#1" fromLane="0" toLane="0"/>
    <connection from="-311394895#1" to="311394895#1" fromLane="0" toLane="0"/>

    <connection from="-311394895#3" to="-195653648" fromLane="0" toLane="0"/>
    <connection from="-311394895#3" to="-311394895#1" fromLane="0" toLane="0"/>
    <connection from="-311394895#3" to="195652236#0" fromLane="0" toLane="0"/>
    <connection from="-311394895#3" to="311394895#3" fromLane="0" toLane="0"/>

    <connection from="-311394895#4" to="-311394895#3" fromLane="0" toLane="0"/>
    <connection from="-311394895#4" to="195652241#0" fromLane="0" toLane="0"/>
    <connection from="-311394895#4" to="311394895#4" fromLane="0" toLane="0"/>

    <connection from="-311394895#5" to="-311394895#4" fromLane="0" toLane="0"/>
    <connection from="-311394895#5" to="-311394890" fromLane="0" toLane="0"/>
    <connection from="-311394895#5" to="311394895#5" fromLane="0" toLane="0"/>

    <connection from="-349643787#0" to="349643787#0" fromLane="0" toLane="0"/>

    <connection from="-349643787#1" to="-349643787#0" fromLane="0" toLane="0"/>
    <connection from="-349643787#1" to="349643787#1" fromLane="0" toLane="0"/>

    <connection from="-349643787#2" to="-349643787#1" fromLane="0" toLane="0"/>
    <connection from="-349643787#2" to="349643787#2" fromLane="0" toLane="0"/>

    <connection from="-349643961#0" to="35145152#4" fromLane="0" toLane="0"/>
    <connection from="-349643961#0" to="-35145152#3" fromLane="0" toLane="0"/>
    <connection from="-349643961#0" to="349643961#0" fromLane="0" toLane="0"/>

    <connection from="-349643961#1" to="-349643961#0" fromLane="0" toLane="0"/>
    <connection from="-349643961#1" to="349643961#1" fromLane="0" toLane="0"/>

    <connection from="-349643961#2" to="675890077#2" fromLane="0" toLane="0"/>
    <connection from="-349643961#2" to="-349643961#1" fromLane="0" toLane="0"/>
    <connection from="-349643961#2" to="-675890077#1" fromLane="0" toLane="0"/>
    <connection from="-349643961#2" to="349643961#2" fromLane="0" toLane="0"/>

    <connection from="-349643961#3" to="-349643961#2" fromLane="0" toLane="0"/>
    <connection from="-349643961#3" to="349643961#3" fromLane="0" toLane="0"/>

    <connection from="-349643961#4" to="455315147#2" fromLane="0" toLane="0"/>
    <connection from="-349643961#4" to="-349643961#3" fromLane="0" toLane="0"/>
    <connection from="-349643961#4" to="-455315147#1" fromLane="0" toLane="0"/>
    <connection from="-349643961#4" to="349643961#4" fromLane="0" toLane="0"/>

    <connection from="-349643964#0" to="37856053#1" fromLane="0" toLane="0"/>
    <connection from="-349643964#0" to="478627085#0" fromLane="0" toLane="0"/>
    <connection from="-349643964#0" to="-37856053#0" fromLane="0" toLane="0"/>
    <connection from="-349643964#0" to="349643964#0" fromLane="0" toLane="0"/>

    <connection from="-349643964#1" to="-349643964#0" fromLane="0" toLane="0"/>
    <connection from="-349643964#1" to="349643964#1" fromLane="0" toLane="0"/>

    <connection from="-35078500" to="-35078501#1" fromLane="0" toLane="0"/>
    <connection from="-35078500" to="-461925689#3" fromLane="0" toLane="0"/>
    <connection from="-35078500" to="35145521#0" fromLane="0" toLane="0"/>
    <connection from="-35078500" to="35078500" fromLane="0" toLane="0"/>

    <connection from="-35078501#1" to="35078501#0" fromLane="0" toLane="0"/>

    <connection from="-35145152#0" to="35145152#0" fromLane="0" toLane="0"/>

    <connection from="-35145152#1" to="196972617#0" fromLane="0" toLane="0"/>
    <connection from="-35145152#1" to="-35145152#0" fromLane="0" toLane="0"/>
    <connection from="-35145152#1" to="35145152#1" fromLane="0" toLane="0"/>

    <connection from="-35145152#2" to="-35145152#1" fromLane="0" toLane="0"/>
    <connection from="-35145152#2" to="455315147#0" fromLane="0" toLane="0"/>
    <connection from="-35145152#2" to="35145152#2" fromLane="0" toLane="0"/>

    <connection from="-35145152#3" to="-35145152#2" fromLane="0" toLane="0"/>
    <connection from="-35145152#3" to="35145152#3" fromLane="0" toLane="0"/>

    <connection from="-35145152#4" to="-35145152#3" fromLane="0" toLane="0"/>
    <connection from="-35145152#4" to="349643961#0" fromLane="0" toLane="0"/>
    <connection from="-35145152#4" to="35145152#4" fromLane="0" toLane="0"/>

    <connection from="-35145521#0" to="35078500" fromLane="0" toLane="0"/>
    <connection from="-35145521#0" to="-35078501#1" fromLane="0" toLane="0"/>
    <connection from="-35145521#0" to="-461925689#3" fromLane="0" toLane="0"/>
    <connection from="-35145521#0" to="35145521#0" fromLane="0" toLane="0"/>

    <connection from="-35145521#2" to="-461135460" fromLane="0" toLane="0"/>
    <connection from="-35145521#2" to="-35145521#0" fromLane="0" toLane="0"/>
    <connection from="-35145521#2" to="238249552" fromLane="0" toLane="0"/>