<?xml version="1.0" encoding="UTF-8"?>
<configuration>
  <input>
    <net-file value=""/>
    <route-files value=""/>
  </input>
  <time>
    <begin value="0"/>
    <end value=""/>
  </time>
</configuration>
