<?xml version="1.0" encoding="UTF-8"?>

<!-- generated on 06/11/21 02:28:46 by Eclipse SUMO netconvert Version 1.8.0
<configuration xmlns:xsi="http://www.w3.org/2001/XMLSchema-instance" xsi:noNamespaceSchemaLocation="http://sumo.dlr.de/xsd/netconvertConfiguration.xsd">

    <input>
        <osm-files value="C:/Users/HP/MIEIC/MSSI/feup-mssi/src/simulation/input/mts.osm"/>
    </input>

    <output>
        <output-file value="simulation/output/original.net.xml"/>
    </output>

    <projection>
        <proj.utm value="true"/>
    </projection>

    <processing>
        <geometry.remove value="true"/>
    </processing>

    <tls_building>
        <tls.discard-simple value="true"/>
        <tls.join value="true"/>
        <tls.guess-signals value="true"/>
        <tls.default-type value="actuated"/>
    </tls_building>

    <ramp_guessing>
        <ramps.guess value="true"/>
    </ramp_guessing>

    <edge_removal>
        <keep-edges.by-vclass value="custom1"/>
        <remove-edges.isolated value="true"/>
    </edge_removal>

    <junctions>
        <junctions.join value="true"/>
    </junctions>

    <report>
        <aggregate-warnings value="5"/>
    </report>

</configuration>
-->

<net version="1.6" junctionCornerDetail="5" limitTurnSpeed="5.50" xmlns:xsi="http://www.w3.org/2001/XMLSchema-instance" xsi:noNamespaceSchemaLocation="http://sumo.dlr.de/xsd/net_file.xsd">

    <location netOffset="-524923.69,-4557525.47" convBoundary="0.00,0.00,3364.65,2661.39" origBoundary="-8.707067,41.165365,-8.656203,41.197615" projParameter="+proj=utm +zone=29 +ellps=WGS84 +datum=WGS84 +units=m +no_defs"/>

    <type id="highway.bridleway" priority="1" numLanes="1" speed="2.78" allow="pedestrian" oneway="1" width="2.00"/>
    <type id="highway.bus_guideway" priority="1" numLanes="1" speed="27.78" allow="bus" oneway="1"/>
    <type id="highway.cycleway" priority="1" numLanes="1" speed="8.33" allow="bicycle" oneway="0" width="1.00"/>
    <type id="highway.footway" priority="1" numLanes="1" speed="2.78" allow="pedestrian" oneway="1" width="2.00"/>
    <type id="highway.ford" priority="1" numLanes="1" speed="2.78" allow="army" oneway="0"/>
    <type id="highway.living_street" priority="2" numLanes="1" speed="2.78" disallow="tram rail_urban rail rail_electric rail_fast ship" oneway="0"/>
    <type id="highway.motorway" priority="14" numLanes="2" speed="39.44" allow="private emergency authority army vip passenger hov taxi bus coach delivery truck trailer motorcycle evehicle custom1 custom2" oneway="1"/>
    <type id="highway.motorway_link" priority="9" numLanes="1" speed="22.22" allow="private emergency authority army vip passenger hov taxi bus coach delivery truck trailer motorcycle evehicle custom1 custom2" oneway="1"/>
    <type id="highway.path" priority="1" numLanes="1" speed="2.78" allow="pedestrian bicycle" oneway="0" width="2.00"/>
    <type id="highway.pedestrian" priority="1" numLanes="1" speed="2.78" allow="pedestrian" oneway="1" width="2.00"/>
    <type id="highway.primary" priority="12" numLanes="2" speed="27.78" disallow="tram rail_urban rail rail_electric rail_fast ship" oneway="0"/>
    <type id="highway.primary_link" priority="7" numLanes="1" speed="22.22" disallow="tram rail_urban rail rail_electric rail_fast ship" oneway="0"/>
    <type id="highway.raceway" priority="15" numLanes="2" speed="83.33" allow="vip" oneway="0"/>
    <type id="highway.residential" priority="3" numLanes="1" speed="13.89" disallow="tram rail_urban rail rail_electric rail_fast ship" oneway="0"/>
    <type id="highway.secondary" priority="11" numLanes="1" speed="27.78" disallow="tram rail_urban rail rail_electric rail_fast ship" oneway="0"/>
    <type id="highway.secondary_link" priority="6" numLanes="1" speed="22.22" disallow="tram rail_urban rail rail_electric rail_fast ship" oneway="0"/>
    <type id="highway.service" priority="1" numLanes="1" speed="5.56" allow="pedestrian delivery bicycle" oneway="0"/>
    <type id="highway.stairs" priority="1" numLanes="1" speed="1.39" allow="pedestrian" oneway="1" width="2.00"/>
    <type id="highway.step" priority="1" numLanes="1" speed="1.39" allow="pedestrian" oneway="1" width="2.00"/>
    <type id="highway.steps" priority="1" numLanes="1" speed="1.39" allow="pedestrian" oneway="1" width="2.00"/>
    <type id="highway.tertiary" priority="10" numLanes="1" speed="22.22" disallow="tram rail_urban rail rail_electric rail_fast ship" oneway="0"/>
    <type id="highway.tertiary_link" priority="5" numLanes="1" speed="22.22" disallow="tram rail_urban rail rail_electric rail_fast ship" oneway="0"/>
    <type id="highway.track" priority="1" numLanes="1" speed="5.56" allow="pedestrian motorcycle moped bicycle" oneway="0"/>
    <type id="highway.trunk" priority="13" numLanes="2" speed="27.78" disallow="pedestrian bicycle tram rail_urban rail rail_electric rail_fast ship" oneway="0"/>
    <type id="highway.trunk_link" priority="8" numLanes="1" speed="22.22" disallow="pedestrian bicycle tram rail_urban rail rail_electric rail_fast ship" oneway="0"/>
    <type id="highway.unclassified" priority="4" numLanes="1" speed="13.89" disallow="tram rail_urban rail rail_electric rail_fast ship" oneway="0"/>
    <type id="highway.unsurfaced" priority="1" numLanes="1" speed="8.33" disallow="tram rail_urban rail rail_electric rail_fast ship" oneway="0"/>
    <type id="railway.highspeed" priority="21" numLanes="1" speed="69.44" allow="rail_fast" oneway="1"/>
    <type id="railway.light_rail" priority="19" numLanes="1" speed="27.78" allow="rail_urban" oneway="1"/>
    <type id="railway.preserved" priority="16" numLanes="1" speed="27.78" allow="rail" oneway="1"/>
    <type id="railway.rail" priority="20" numLanes="1" speed="44.44" allow="rail" oneway="1"/>
    <type id="railway.subway" priority="18" numLanes="1" speed="27.78" allow="rail_urban" oneway="1"/>
    <type id="railway.tram" priority="17" numLanes="1" speed="13.89" allow="tram" oneway="1"/>

    <edge id=":1108123661_0" function="internal">
        <lane id=":1108123661_0_0" index="0" disallow="tram rail_urban rail rail_electric rail_fast ship" speed="13.89" length="11.26" shape="1182.15,1468.89 1170.95,1467.76"/>
    </edge>
    <edge id=":1108123661_1" function="internal">
        <lane id=":1108123661_1_0" index="0" disallow="tram rail_urban rail rail_electric rail_fast ship" speed="7.33" length="4.01" shape="1182.15,1468.89 1179.78,1468.08 1178.80,1466.94"/>
    </edge>
    <edge id=":1108123661_2" function="internal">
        <lane id=":1108123661_2_0" index="0" disallow="tram rail_urban rail rail_electric rail_fast ship" speed="3.65" length="2.34" shape="1182.15,1468.89 1181.04,1467.96 1180.73,1467.13"/>
    </edge>
    <edge id=":1108123661_9" function="internal">
        <lane id=":1108123661_9_0" index="0" disallow="tram rail_urban rail rail_electric rail_fast ship" speed="7.33" length="7.71" shape="1178.80,1466.94 1178.21,1466.25 1177.46,1463.41 1177.51,1459.54"/>
    </edge>
    <edge id=":1108123661_10" function="internal">
        <lane id=":1108123661_10_0" index="0" disallow="tram rail_urban rail rail_electric rail_fast ship" speed="3.65" length="2.34" shape="1180.73,1467.13 1181.21,1466.37 1182.49,1465.70"/>
    </edge>
    <edge id=":1108123661_3" function="internal">
        <lane id=":1108123661_3_0" index="0" disallow="tram rail_urban rail rail_electric rail_fast ship" speed="6.56" length="9.14" shape="1171.25,1464.57 1173.77,1464.46 1175.65,1463.59 1176.90,1461.95 1177.51,1459.54"/>
    </edge>
    <edge id=":1108123661_4" function="internal">
        <lane id=":1108123661_4_0" index="0" disallow="tram rail_urban rail rail_electric rail_fast ship" speed="13.89" length="11.30" shape="1171.25,1464.57 1182.49,1465.70"/>
    </edge>
    <edge id=":1108123661_5" function="internal">
        <lane id=":1108123661_5_0" index="0" disallow="tram rail_urban rail rail_electric rail_fast ship" speed="3.65" length="2.34" shape="1171.25,1464.57 1172.37,1465.48 1172.69,1466.32"/>
    </edge>
    <edge id=":1108123661_11" function="internal">
        <lane id=":1108123661_11_0" index="0" disallow="tram rail_urban rail rail_electric rail_fast ship" speed="3.65" length="2.34" shape="1172.69,1466.32 1172.22,1467.07 1170.95,1467.76"/>
    </edge>
    <edge id=":1108123661_6" function="internal">
        <lane id=":1108123661_6_0" index="0" disallow="tram rail_urban rail rail_electric rail_fast ship" speed="6.45" length="9.03" shape="1175.88,1473.89 1175.83,1471.41 1174.99,1469.56 1173.36,1468.34 1170.95,1467.76"/>
    </edge>
    <edge id=":1108123661_7" function="internal">
        <lane id=":1108123661_7_0" index="0" disallow="tram rail_urban rail rail_electric rail_fast ship" speed="13.89" length="14.44" shape="1175.88,1473.89 1177.51,1459.54"/>
    </edge>
    <edge id=":1108123661_8" function="internal">
        <lane id=":1108123661_8_0" index="0" disallow="tram rail_urban rail rail_electric rail_fast ship" speed="7.38" length="11.79" shape="1175.88,1473.89 1176.70,1470.09 1178.07,1467.46 1180.00,1466.00 1182.49,1465.70"/>
    </edge>
    <edge id=":1108123783_0" function="internal">
        <lane id=":1108123783_0_0" index="0" disallow="tram rail_urban rail rail_electric rail_fast ship" speed="2.78" length="10.01" shape="713.43,1879.54 705.23,1873.80"/>
    </edge>
    <edge id=":1108123783_1" function="internal">
        <lane id=":1108123783_1_0" index="0" disallow="tram rail_urban rail rail_electric rail_fast ship" speed="6.28" length="8.14" shape="713.43,1879.54 711.73,1877.97 710.90,1876.27 710.93,1874.46 711.82,1872.53"/>
    </edge>
    <edge id=":1108123783_2" function="internal">
        <lane id=":1108123783_2_0" index="0" disallow="tram rail_urban rail rail_electric rail_fast ship" speed="6.94" length="8.57" shape="707.30,1881.38 707.87,1879.08 707.72,1877.05 706.84,1875.29 705.23,1873.80"/>
    </edge>
    <edge id=":1108123783_3" function="internal">
        <lane id=":1108123783_3_0" index="0" disallow="tram rail_urban rail rail_electric rail_fast ship" speed="13.89" length="9.98" shape="707.30,1881.38 708.37,1878.62 709.20,1876.77 710.21,1875.00 711.82,1872.53"/>
    </edge>
    <edge id=":111505998_0" function="internal">
        <lane id=":111505998_0_0" index="0" disallow="tram rail_urban rail rail_electric rail_fast ship" speed="14.31" length="4.65" shape="1222.96,458.44 1222.42,459.51 1222.10,460.27 1221.91,461.08 1221.77,462.26"/>
        <lane id=":111505998_0_1" index="1" disallow="tram rail_urban rail rail_electric rail_fast ship" speed="16.25" length="4.65" shape="1220.11,457.00 1219.41,458.39 1219.00,459.38 1218.76,460.42 1218.59,461.96"/>
    </edge>
    <edge id=":111505998_2" function="internal">
        <lane id=":111505998_2_0" index="0" disallow="tram rail_urban rail rail_electric rail_fast ship" speed="3.65" length="2.34" shape="1220.11,457.00 1218.85,457.71 1217.96,457.71"/>
    </edge>
    <edge id=":111505998_6" function="internal">
        <lane id=":111505998_6_0" index="0" disallow="tram rail_urban rail rail_electric rail_fast ship" speed="3.65" length="2.34" shape="1217.96,457.71 1217.42,456.99 1217.25,455.56"/>
    </edge>
    <edge id=":111505998_3" function="internal">
        <lane id=":111505998_3_0" index="0" disallow="tram rail_urban rail rail_electric rail_fast ship" speed="13.78" length="4.26" shape="1212.21,456.96 1213.00,456.23 1213.50,455.69 1213.90,455.07 1214.39,454.12"/>
        <lane id=":111505998_3_1" index="1" disallow="tram rail_urban rail rail_electric rail_fast ship" speed="15.98" length="4.26" shape="1214.29,459.40 1215.36,458.42 1216.03,457.68 1216.58,456.84 1217.25,455.56"/>
    </edge>
    <edge id=":111505998_5" function="internal">
        <lane id=":111505998_5_0" index="0" disallow="tram rail_urban rail rail_electric rail_fast ship" speed="5.10" length="4.04" shape="1214.29,459.40 1216.42,457.88 1217.84,457.80"/>
    </edge>
    <edge id=":111505998_7" function="internal">
        <lane id=":111505998_7_0" index="0" disallow="tram rail_urban rail rail_electric rail_fast ship" speed="5.10" length="4.35" shape="1217.84,457.80 1218.57,459.16 1218.59,461.96"/>
    </edge>
    <edge id=":111508025_0" function="internal">
        <lane id=":111508025_0_0" index="0" disallow="tram rail_urban rail rail_electric rail_fast ship" speed="21.86" length="13.58" shape="1220.93,476.41 1220.75,480.29 1220.57,483.00 1220.87,485.61 1222.14,489.20"/>
        <lane id=":111508025_0_1" index="1" disallow="tram rail_urban rail rail_electric rail_fast ship" speed="22.76" length="13.58" shape="1217.73,476.61 1217.56,480.82 1217.42,483.75 1217.80,486.58 1219.21,490.47"/>
    </edge>
    <edge id=":111508025_2" function="internal">
        <lane id=":111508025_2_0" index="0" disallow="tram rail_urban rail rail_electric rail_fast ship" speed="22.41" length="13.86" shape="1213.65,478.11 1216.76,480.94 1218.78,483.03 1220.37,485.43 1222.14,489.20"/>
        <lane id=":111508025_2_1" index="1" disallow="tram rail_urban rail rail_electric rail_fast ship" speed="21.95" length="13.86" shape="1210.92,479.95 1213.92,482.64 1215.91,484.60 1217.48,486.87 1219.21,490.47"/>
    </edge>
    <edge id=":111508028_0" function="internal">
        <lane id=":111508028_0_0" index="0" disallow="tram rail_urban rail rail_electric rail_fast ship" speed="11.34" length="10.28" shape="1225.55,498.42 1226.64,501.08 1228.13,502.49 1230.15,503.52 1232.82,505.06"/>
    </edge>
    <edge id=":111508028_1" function="internal">
        <lane id=":111508028_1_0" index="0" disallow="tram rail_urban rail rail_electric rail_fast ship" speed="11.82" length="11.19" shape="1225.55,498.42 1226.35,501.64 1227.13,503.88 1228.48,505.70 1231.02,507.70"/>
    </edge>
    <edge id=":111508028_2" function="internal">
        <lane id=":111508028_2_0" index="0" disallow="tram rail_urban rail rail_electric rail_fast ship" speed="27.78" length="11.50" shape="1225.55,498.42 1226.43,501.77 1226.96,504.10 1227.21,506.46 1227.29,509.91"/>
        <lane id=":111508028_2_1" index="1" disallow="tram rail_urban rail rail_electric rail_fast ship" speed="27.78" length="11.50" shape="1222.45,499.23 1223.30,502.48 1223.79,504.73 1224.02,507.02 1224.09,510.38"/>
    </edge>
    <edge id=":111508341_0" function="internal">
        <lane id=":111508341_0_0" index="0" disallow="tram rail_urban rail rail_electric rail_fast ship" speed="13.89" length="35.92" shape="1222.51,548.75 1215.42,553.04 1208.26,559.31 1201.43,566.09 1195.27,571.93"/>
    </edge>
    <edge id=":111508341_1" function="internal">
        <lane id=":111508341_1_0" index="0" disallow="tram rail_urban rail rail_electric rail_fast ship" speed="20.83" length="37.88" shape="1222.51,548.75 1214.89,552.81 1206.44,558.29 1197.93,563.59 1190.12,567.14"/>
        <lane id=":111508341_1_1" index="1" disallow="tram rail_urban rail rail_electric rail_fast ship" speed="20.83" length="37.88" shape="1221.31,545.79 1213.51,549.89 1204.67,555.48 1195.76,560.90 1187.78,564.49"/>
    </edge>
    <edge id=":111508341_3" function="internal">
        <lane id=":111508341_3_0" index="0" disallow="tram rail_urban rail rail_electric rail_fast ship" speed="20.83" length="37.74" shape="1218.76,542.66 1213.64,549.63 1206.72,557.05 1199.33,564.07 1192.77,569.85"/>
    </edge>
    <edge id=":111508341_4" function="internal">
        <lane id=":111508341_4_0" index="0" disallow="tram rail_urban rail rail_electric rail_fast ship" speed="20.78" length="37.85" shape="1218.76,542.66 1213.51,549.72 1206.15,557.07 1197.93,563.33 1190.12,567.14"/>
        <lane id=":111508341_4_1" index="1" disallow="tram rail_urban rail rail_electric rail_fast ship" speed="20.58" length="37.85" shape="1216.13,540.82 1210.92,547.76 1203.66,554.83 1195.55,560.81 1187.78,564.49"/>
    </edge>
    <edge id=":111508660_0" function="internal">
        <lane id=":111508660_0_0" index="0" disallow="tram rail_urban rail rail_electric rail_fast ship" speed="6.53" length="9.06" shape="1177.99,675.95 1175.51,676.09 1173.66,676.98 1172.45,678.63 1171.88,681.04"/>
    </edge>
    <edge id=":111508660_1" function="internal">
        <lane id=":111508660_1_0" index="0" disallow="tram rail_urban rail rail_electric rail_fast ship" speed="3.65" length="4.67" shape="1177.99,675.95 1176.87,675.05 1176.54,674.22 1177.01,673.46 1178.27,672.76"/>
    </edge>
    <edge id=":111508660_2" function="internal">
        <lane id=":111508660_2_0" index="0" disallow="tram rail_urban rail rail_electric rail_fast ship" speed="6.50" length="9.03" shape="1173.19,666.70 1173.32,669.17 1174.21,671.01 1175.86,672.20 1178.27,672.76"/>
    </edge>
    <edge id=":111508660_3" function="internal">
        <lane id=":111508660_3_0" index="0" disallow="tram rail_urban rail rail_electric rail_fast ship" speed="13.89" length="14.40" shape="1173.19,666.70 1171.88,681.04"/>
        <lane id=":111508660_3_1" index="1" disallow="tram rail_urban rail rail_electric rail_fast ship" speed="13.89" length="14.40" shape="1170.00,666.41 1168.69,680.74"/>
    </edge>
    <edge id=":111619640_0" function="internal">
        <lane id=":111619640_0_0" index="0" disallow="tram rail_urban rail rail_electric rail_fast ship" speed="20.84" length="19.61" shape="1152.13,562.51 1151.61,558.75 1150.76,554.63 1149.52,549.68 1147.78,543.42"/>
    </edge>
    <edge id=":111619640_1" function="internal">
        <lane id=":111619640_1_0" index="0" disallow="tram rail_urban rail rail_electric rail_fast ship" speed="19.64" length="19.80" shape="1157.44,560.56 1153.25,556.41 1150.90,553.05 1149.40,549.15 1147.78,543.42"/>
        <lane id=":111619640_1_1" index="1" disallow="tram rail_urban rail rail_electric rail_fast ship" speed="19.32" length="19.80" shape="1160.44,558.97 1156.35,554.98 1153.99,551.78 1152.47,548.07 1150.86,542.54"/>
    </edge>
    <edge id=":111619646_0" function="internal">
        <lane id=":111619646_0_0" index="0" disallow="tram rail_urban rail rail_electric rail_fast ship" speed="27.78" length="17.26" shape="1186.56,472.38 1191.49,471.08 1194.77,469.83 1197.82,468.04 1202.04,465.15"/>
    </edge>
    <edge id=":111619646_1" function="internal">
        <lane id=":111619646_1_0" index="0" disallow="tram rail_urban rail rail_electric rail_fast ship" speed="27.78" length="17.63" shape="1186.56,472.38 1191.75,471.54 1195.46,471.32 1198.94,470.56 1203.40,468.10"/>
    </edge>
    <edge id=":111619646_2" function="internal">
        <lane id=":111619646_2_0" index="0" disallow="tram rail_urban rail rail_electric rail_fast ship" speed="16.95" length="18.05" shape="1186.56,472.38 1191.83,471.09 1195.60,470.54 1199.30,471.00 1204.35,472.75"/>
        <lane id=":111619646_2_1" index="1" disallow="tram rail_urban rail rail_electric rail_fast ship" speed="16.70" length="18.05" shape="1187.31,475.49 1192.43,474.31 1196.09,473.92 1199.68,474.52 1204.58,476.28"/>
    </edge>
    <edge id=":111622360_0" function="internal">
        <lane id=":111622360_0_0" index="0" disallow="tram rail_urban rail rail_electric rail_fast ship" speed="13.89" length="8.48" shape="977.63,868.84 982.02,861.59"/>
    </edge>
    <edge id=":111622360_1" function="internal">
        <lane id=":111622360_1_0" index="0" disallow="tram rail_urban rail rail_electric rail_fast ship" speed="7.34" length="7.64" shape="977.63,868.84 978.74,867.58 980.25,866.75 982.15,866.35 984.44,866.38"/>
    </edge>
    <edge id=":111627979_0" function="internal">
        <lane id=":111627979_0_0" index="0" disallow="tram rail_urban rail rail_electric rail_fast ship" speed="6.51" length="9.01" shape="1158.68,885.39 1156.22,885.50 1154.38,886.38 1153.16,888.01 1152.57,890.41"/>
    </edge>
    <edge id=":111627979_1" function="internal">
        <lane id=":111627979_1_0" index="0" disallow="tram rail_urban rail rail_electric rail_fast ship" speed="3.65" length="4.67" shape="1158.68,885.39 1157.56,884.48 1157.24,883.64 1157.72,882.89 1158.99,882.20"/>
    </edge>
    <edge id=":111627979_2" function="internal">
        <lane id=":111627979_2_0" index="0" disallow="tram rail_urban rail rail_electric rail_fast ship" speed="6.51" length="9.01" shape="1153.94,876.11 1154.06,878.58 1154.95,880.41 1156.59,881.62 1158.99,882.20"/>
    </edge>
    <edge id=":111627979_3" function="internal">
        <lane id=":111627979_3_0" index="0" disallow="tram rail_urban rail rail_electric rail_fast ship" speed="13.89" length="14.35" shape="1153.94,876.11 1152.57,890.41"/>
        <lane id=":111627979_3_1" index="1" disallow="tram rail_urban rail rail_electric rail_fast ship" speed="13.89" length="14.35" shape="1150.75,875.82 1149.39,890.09"/>
    </edge>
    <edge id=":111627979_5" function="internal">
        <lane id=":111627979_5_0" index="0" disallow="tram rail_urban rail rail_electric rail_fast ship" speed="13.89" length="14.47" shape="1144.53,882.42 1148.19,882.52 1151.76,882.31 1155.33,882.10 1158.99,882.20"/>
    </edge>
    <edge id=":111627979_6" function="internal">
        <lane id=":111627979_6_0" index="0" disallow="tram rail_urban rail rail_electric rail_fast ship" speed="6.91" length="10.32" shape="1144.53,882.42 1146.92,883.10 1148.53,884.61 1149.35,886.94 1149.39,890.09"/>
    </edge>
    <edge id=":111630982_0" function="internal">
        <lane id=":111630982_0_0" index="0" disallow="tram rail_urban rail rail_electric rail_fast ship" speed="6.22" length="9.05" shape="2592.52,625.68 2590.89,627.62 2590.37,629.54 2590.95,631.45 2592.63,633.34"/>
    </edge>
    <edge id=":111630982_1" function="internal">
        <lane id=":111630982_1_0" index="0" disallow="tram rail_urban rail rail_electric rail_fast ship" speed="3.65" length="4.67" shape="2592.52,625.68 2591.09,625.88 2590.26,625.55 2590.02,624.69 2590.38,623.29"/>
    </edge>
    <edge id=":111630982_2" function="internal">
        <lane id=":111630982_2_0" index="0" disallow="tram rail_urban rail rail_electric rail_fast ship" speed="7.21" length="9.86" shape="2581.48,624.19 2583.60,625.38 2585.80,625.63 2588.06,624.93 2590.38,623.29"/>
    </edge>
    <edge id=":111630982_3" function="internal">
        <lane id=":111630982_3_0" index="0" disallow="tram rail_urban rail rail_electric rail_fast ship" speed="13.89" length="14.38" shape="2581.48,624.19 2592.63,633.34"/>
        <lane id=":111630982_3_1" index="1" disallow="tram rail_urban rail rail_electric rail_fast ship" speed="13.89" length="14.38" shape="2579.49,626.69 2590.57,635.78"/>
    </edge>
    <edge id=":1122690133_0" function="internal">
        <lane id=":1122690133_0_0" index="0" disallow="tram rail_urban rail rail_electric rail_fast ship" speed="13.89" length="2.43" shape="2098.81,1330.23 2100.42,1332.05"/>
    </edge>
    <edge id=":1122690133_1" function="internal">
        <lane id=":1122690133_1_0" index="0" disallow="tram rail_urban rail rail_electric rail_fast ship" speed="3.65" length="0.65" shape="2097.23,1331.82 2097.63,1331.30"/>
    </edge>
    <edge id=":1122690133_2" function="internal">
        <lane id=":1122690133_2_0" index="0" disallow="tram rail_urban rail rail_electric rail_fast ship" speed="3.65" length="4.02" shape="2097.63,1331.30 2098.11,1330.68 2098.94,1330.34 2099.71,1330.80 2100.42,1332.05"/>
    </edge>
    <edge id=":114302213_0" function="internal">
        <lane id=":114302213_0_0" index="0" disallow="tram rail_urban rail rail_electric rail_fast ship" speed="27.78" length="11.08" shape="1916.84,1359.80 1905.99,1357.73"/>
        <lane id=":114302213_0_1" index="1" disallow="tram rail_urban rail rail_electric rail_fast ship" speed="27.78" length="11.08" shape="1917.47,1356.67 1906.55,1354.58"/>
    </edge>
    <edge id=":114302213_2" function="internal">
        <lane id=":114302213_2_0" index="0" disallow="tram rail_urban rail rail_electric rail_fast ship" speed="6.54" length="8.97" shape="1910.52,1364.21 1910.56,1361.74 1909.81,1359.83 1908.29,1358.50 1905.99,1357.73"/>
    </edge>
    <edge id=":114302214_0" function="internal">
        <lane id=":114302214_0_0" index="0" disallow="tram rail_urban rail rail_electric rail_fast ship" speed="27.78" length="3.76" shape="1976.66,1384.13 1975.69,1383.57 1975.05,1383.17 1974.42,1382.72 1973.52,1382.07"/>
    </edge>
    <edge id=":114302214_1" function="internal">
        <lane id=":114302214_1_0" index="0" disallow="tram rail_urban rail rail_electric rail_fast ship" speed="27.78" length="3.41" shape="1978.24,1381.35 1977.36,1380.84 1976.78,1380.47 1976.21,1380.07 1975.39,1379.48"/>
    </edge>
    <edge id=":114302214_2" function="internal">
        <lane id=":114302214_2_0" index="0" disallow="tram rail_urban rail rail_electric rail_fast ship" speed="20.84" length="3.75" shape="1979.82,1378.57 1978.81,1378.28 1978.01,1378.46 1977.20,1378.65 1976.19,1378.37"/>
    </edge>
    <edge id=":114302525_0" function="internal">
        <lane id=":114302525_0_0" index="0" disallow="tram rail_urban rail rail_electric rail_fast ship" speed="4.44" length="2.03" shape="1840.53,1323.64 1841.14,1323.67 1841.59,1323.71 1841.95,1323.89 1842.28,1324.34"/>
    </edge>
    <edge id=":114302525_1" function="internal">
        <lane id=":114302525_1_0" index="0" disallow="tram rail_urban rail rail_electric rail_fast ship" speed="27.78" length="2.92" shape="1840.22,1326.82 1843.10,1327.07"/>
        <lane id=":114302525_1_1" index="1" disallow="tram rail_urban rail rail_electric rail_fast ship" speed="27.78" length="2.92" shape="1839.91,1330.01 1842.86,1330.26"/>
    </edge>
    <edge id=":114302538_0" function="internal">
        <lane id=":114302538_0_0" index="0" disallow="tram rail_urban rail rail_electric rail_fast ship" speed="14.63" length="17.51" shape="1765.52,1341.46 1760.54,1341.51 1757.28,1342.86 1754.31,1345.30 1750.19,1348.61"/>
        <lane id=":114302538_0_1" index="1" disallow="tram rail_urban rail rail_electric rail_fast ship" speed="16.51" length="17.51" shape="1763.30,1338.26 1758.37,1338.78 1755.23,1340.30 1752.39,1342.73 1748.34,1346.01"/>
    </edge>
    <edge id=":114302538_2" function="internal">
        <lane id=":114302538_2_0" index="0" disallow="tram rail_urban rail rail_electric rail_fast ship" speed="15.56" length="17.32" shape="1759.82,1334.43 1758.29,1339.42 1756.73,1342.75 1754.31,1345.46 1750.19,1348.61"/>
        <lane id=":114302538_2_1" index="1" disallow="tram rail_urban rail rail_electric rail_fast ship" speed="15.21" length="17.32" shape="1757.13,1332.21 1755.74,1337.01 1754.38,1340.27 1752.20,1342.95 1748.34,1346.01"/>
    </edge>
    <edge id=":114302543_0" function="internal">
        <lane id=":114302543_0_0" index="0" disallow="tram rail_urban rail rail_electric rail_fast ship" speed="15.97" length="17.67" shape="1743.24,1352.70 1737.82,1354.72 1733.59,1356.46 1730.38,1358.41 1728.04,1361.07"/>
    </edge>
    <edge id=":114302543_1" function="internal">
        <lane id=":114302543_1_0" index="0" disallow="tram rail_urban rail rail_electric rail_fast ship" speed="20.81" length="17.84" shape="1743.24,1352.70 1738.23,1354.46 1734.60,1355.15 1730.89,1355.03 1725.58,1354.37"/>
        <lane id=":114302543_1_1" index="1" disallow="tram rail_urban rail rail_electric rail_fast ship" speed="14.42" length="17.84" shape="1742.10,1349.71 1737.24,1351.62 1733.66,1352.64 1730.09,1352.52 1725.24,1351.00"/>
    </edge>
    <edge id=":114302558_0" function="internal">
        <lane id=":114302558_0_0" index="0" disallow="tram rail_urban rail rail_electric rail_fast ship" speed="12.71" length="32.90" shape="1712.82,1356.23 1713.20,1347.93 1710.68,1340.96 1705.27,1335.31 1696.96,1331.00"/>
    </edge>
    <edge id=":114302558_1" function="internal">
        <lane id=":114302558_1_0" index="0" disallow="tram rail_urban rail rail_electric rail_fast ship" speed="20.83" length="31.09" shape="1712.82,1356.23 1711.89,1350.97 1708.77,1343.42 1705.23,1334.93 1703.05,1326.84"/>
    </edge>
    <edge id=":114302558_2" function="internal">
        <lane id=":114302558_2_0" index="0" disallow="tram rail_urban rail rail_electric rail_fast ship" speed="27.78" length="31.21" shape="1719.57,1352.23 1712.77,1347.63 1706.53,1340.91 1701.16,1334.54 1696.96,1331.00"/>
    </edge>
    <edge id=":114302558_3" function="internal">
        <lane id=":114302558_3_0" index="0" disallow="tram rail_urban rail rail_electric rail_fast ship" speed="14.81" length="31.27" shape="1719.57,1352.23 1713.26,1348.59 1708.41,1343.14 1705.00,1335.89 1703.05,1326.84"/>
        <lane id=":114302558_3_1" index="1" disallow="tram rail_urban rail rail_electric rail_fast ship" speed="14.54" length="31.27" shape="1722.20,1349.82 1716.03,1346.29 1711.30,1341.05 1707.99,1334.11 1706.11,1325.47"/>
    </edge>
    <edge id=":114302571_0" function="internal">
        <lane id=":114302571_0_0" index="0" disallow="tram rail_urban rail rail_electric rail_fast ship" speed="9.63" length="6.40" shape="1701.24,1314.32 1703.10,1313.91 1704.39,1313.53 1705.48,1312.82 1706.73,1311.45"/>
    </edge>
    <edge id=":114302571_1" function="internal">
        <lane id=":114302571_1_0" index="0" disallow="tram rail_urban rail rail_electric rail_fast ship" speed="22.53" length="6.44" shape="1704.15,1317.61 1704.73,1315.68 1705.08,1314.33 1705.61,1313.07 1706.73,1311.45"/>
        <lane id=":114302571_1_1" index="1" disallow="tram rail_urban rail rail_electric rail_fast ship" speed="13.12" length="6.44" shape="1707.03,1319.07 1707.38,1317.28 1707.66,1316.04 1708.18,1314.91 1709.23,1313.45"/>
    </edge>
    <edge id=":114302589_0" function="internal">
        <lane id=":114302589_0_0" index="0" disallow="tram rail_urban rail rail_electric rail_fast ship" speed="6.05" length="9.07" shape="1650.43,1494.43 1652.49,1495.98 1654.41,1496.35 1656.20,1495.54 1657.84,1493.55"/>
    </edge>
    <edge id=":114302589_1" function="internal">
        <lane id=":114302589_1_0" index="0" disallow="tram rail_urban rail rail_electric rail_fast ship" speed="22.22" length="10.99" shape="1650.43,1494.43 1652.63,1496.66 1654.22,1498.42 1655.65,1500.31 1657.35,1502.93"/>
    </edge>
    <edge id=":114302596_0" function="internal">