<nodes xmlns:xsi="http://www.w3.org/2001/XMLSchema-instance" version="1.6" xsi:noNamespaceSchemaLocation="http://sumo.dlr.de/xsd/nodes_file.xsd">
    <location netOffset="0.00,0.00" convBoundary="0.00,50.00,100.00,100.00" origBoundary="-10000000000.00,-10000000000.00,10000000000.00,10000000000.00" projParameter="!" />

    <node id="leftBottom" x="0.00" y="50.00" type="priority" />
    <node id="leftTop" x="0.00" y="100.00" type="priority" />
    <node id="middleBottom" x="50.00" y="50.00" type="right_before_left" />
    <node id="middleTop" x="50.00" y="100.00" type="priority" />
    <node id="rightBottom" x="100.00" y="50.00" type="priority" />
    <node id="rightTop" x="100.00" y="100.00" type="priority" />
<node id="newNode_0_0" x="6.25" y="100.0" type="priority" /><node id="newNode_0_1" x="6.25" y="100.0" type="priority" /><node id="newNode_0_2" x="6.25" y="100.0" type="priority" /><node id="newNode_0_3" x="6.25" y="100.0" type="priority" /><node id="newNode_1_0" x="18.75" y="100.0" type="priority" /><node id="newNode_1_1" x="18.75" y="100.0" type="priority" /><node id="newNode_1_2" x="18.75" y="100.0" type="priority" /><node id="newNode_1_3" x="18.75" y="100.0" type="priority" /><node id="newNode_2_0" x="31.25" y="100.0" type="priority" /><node id="newNode_2_1" x="31.25" y="100.0" type="priority" /><node id="newNode_2_2" x="31.25" y="100.0" type="priority" /><node id="newNode_2_3" x="31.25" y="100.0" type="priority" /><node id="newNode_3_0" x="43.75" y="100.0" type="priority" /><node id="newNode_3_1" x="43.75" y="100.0" type="priority" /><node id="newNode_3_2" x="43.75" y="100.0" type="priority" /><node id="newNode_3_3" x="43.75" y="100.0" type="priority" /></nodes>