<?xml version="1.0" encoding="UTF-8"?>

<!-- generated on 05/09/21 18:07:43 by Eclipse SUMO netconvert Version 1.8.0
<configuration xmlns:xsi="http://www.w3.org/2001/XMLSchema-instance" xsi:noNamespaceSchemaLocation="http://sumo.dlr.de/xsd/netconvertConfiguration.xsd">

    <input>
        <sumo-net-file value="network.net.xml"/>
    </input>

    <output>
        <plain-output-prefix value="true"/>
    </output>

    <processing>
        <geometry.min-radius.fix.railways value="false"/>
        <geometry.max-grade.fix value="false"/>
        <offset.disable-normalization value="true"/>
        <lefthand value="false"/>
    </processing>

    <junctions>
        <no-turnarounds value="true"/>
        <junctions.corner-detail value="0"/>
        <junctions.limit-turn-speed value="-1"/>
        <rectangular-lane-cut value="false"/>
    </junctions>

    <pedestrian>
        <walkingareas value="false"/>
    </pedestrian>

    <report>
        <aggregate-warnings value="5"/>
    </report>

</configuration>
-->

<edges version="1.6" xmlns:xsi="http://www.w3.org/2001/XMLSchema-instance" xsi:noNamespaceSchemaLocation="http://sumo.dlr.de/xsd/edges_file.xsd">
    <edge id="leftBottom_to_leftTop" from="leftBottom" to="leftTop" priority="1" numLanes="1" speed="13.89"/>
    <edge id="leftBottom_to_middleBottom" from="leftBottom" to="middleBottom" priority="1" numLanes="1" speed="13.89"/>
    <edge id="leftTop_to_leftBottom" from="leftTop" to="leftBottom" priority="1" numLanes="1" speed="13.89"/>
    <edge id="leftTop_to_middleTop" from="leftTop" to="middleTop" priority="1" numLanes="1" speed="13.89"/>
    <edge id="middleBottom_to_leftBottom" from="middleBottom" to="leftBottom" priority="1" numLanes="1" speed="13.89"/>
    <edge id="middleBottom_to_middleTop" from="middleBottom" to="middleTop" priority="1" numLanes="1" speed="13.89"/>
    <edge id="middleBottom_to_rightBottom" from="middleBottom" to="rightBottom" priority="1" numLanes="1" speed="13.89"/>
    <edge id="middleTop_to_leftTop" from="middleTop" to="leftTop" priority="1" numLanes="1" speed="13.89"/>
    <edge id="middleTop_to_middleBottom" from="middleTop" to="middleBottom" priority="1" numLanes="1" speed="13.89"/>
    <edge id="middleTop_to_rightTop" from="middleTop" to="rightTop" priority="1" numLanes="1" speed="13.89"/>
    <edge id="rightBottom_to_middleBottom" from="rightBottom" to="middleBottom" priority="1" numLanes="1" speed="13.89"/>
    <edge id="rightBottom_to_rightTop" from="rightBottom" to="rightTop" priority="1" numLanes="1" speed="13.89"/>
    <edge id="rightTop_to_middleTop" from="rightTop" to="middleTop" priority="1" numLanes="1" speed="13.89"/>
    <edge id="rightTop_to_rightBottom" from="rightTop" to="rightBottom" priority="1" numLanes="1" speed="13.89"/>
</edges>
